*SPEF "IEEE 1481-1999"
*DESIGN "CORTEXM0DS"
*DATE "Thu Sep 26 23:25:12 2019"
*VENDOR "SYNOPSYS INC"
*PROGRAM "Synopsys Design Compiler cmos"
*VERSION "P-2019.03-SP1"
*DESIGN_FLOW "SYNTHESIS"
*DIVIDER /
*DELIMITER :
*BUS_DELIMITER []
*T_UNIT 0.0010 NS
*C_UNIT 0.0010 PF
*R_UNIT 1.0 KOHM
*L_UNIT 1.0 HENRY

*PORTS

HCLK I *L 0.000e+00 *S 0.000e+00 0.000e+00 
HRESETn I *L 0.000e+00 *S 8.433e+01 7.234e+01 *D DFFRNQ_X1 
HADDR\[31\] O *L 2.546e+00 *S 8.682e+00 8.481e+00 
HADDR\[30\] O *L 2.546e+00 *S 8.007e+00 7.823e+00 
HADDR\[29\] O *L 2.546e+00 *S 9.675e+00 9.449e+00 
HADDR\[28\] O *L 2.546e+00 *S 1.124e+01 1.286e+01 
HADDR\[27\] O *L 2.546e+00 *S 1.388e+01 1.610e+01 
HADDR\[26\] O *L 2.546e+00 *S 8.517e+00 9.690e+00 
HADDR\[25\] O *L 2.546e+00 *S 9.861e+00 1.125e+01 
HADDR\[24\] O *L 2.546e+00 *S 1.006e+01 1.149e+01 
HADDR\[23\] O *L 2.546e+00 *S 1.025e+01 1.171e+01 
HADDR\[22\] O *L 2.546e+00 *S 8.356e+00 9.501e+00 
HADDR\[21\] O *L 2.546e+00 *S 9.712e+00 1.108e+01 
HADDR\[20\] O *L 2.546e+00 *S 8.344e+00 9.488e+00 
HADDR\[19\] O *L 2.546e+00 *S 9.732e+00 1.111e+01 
HADDR\[18\] O *L 2.546e+00 *S 9.894e+00 1.129e+01 
HADDR\[17\] O *L 2.546e+00 *S 9.766e+00 1.114e+01 
HADDR\[16\] O *L 2.546e+00 *S 8.475e+00 9.641e+00 
HADDR\[15\] O *L 2.546e+00 *S 1.008e+01 1.151e+01 
HADDR\[14\] O *L 2.546e+00 *S 1.016e+01 1.161e+01 
HADDR\[13\] O *L 2.546e+00 *S 1.055e+01 1.206e+01 
HADDR\[12\] O *L 2.546e+00 *S 8.771e+00 9.985e+00 
HADDR\[11\] O *L 2.546e+00 *S 1.225e+01 1.409e+01 
HADDR\[10\] O *L 2.546e+00 *S 1.359e+01 1.575e+01 
HADDR\[9\] O *L 2.546e+00 *S 1.291e+01 1.490e+01 
HADDR\[8\] O *L 2.546e+00 *S 1.926e+01 2.286e+01 
HADDR\[7\] O *L 2.546e+00 *S 1.321e+01 1.527e+01 
HADDR\[6\] O *L 2.546e+00 *S 9.292e+00 1.059e+01 
HADDR\[5\] O *L 2.546e+00 *S 1.180e+01 1.353e+01 
HADDR\[4\] O *L 2.546e+00 *S 1.559e+01 1.823e+01 
HADDR\[3\] O *L 2.546e+00 *S 1.352e+01 1.566e+01 
HADDR\[2\] O *L 2.546e+00 *S 1.475e+01 1.719e+01 
HADDR\[1\] O *L 2.546e+00 *S 5.267e+00 4.538e+00 
HADDR\[0\] O *L 2.546e+00 *S 1.280e+01 9.008e+00 
HBURST\[2\] O *L 2.546e+00 *S 6.423e+00 6.277e+00 
HBURST\[1\] O *L 2.546e+00 *S 6.352e+00 6.208e+00 
HBURST\[0\] O *L 2.546e+00 *S 7.405e+00 7.236e+00 
HMASTLOCK O *L 2.546e+00 *S 8.626e+00 8.427e+00 
HPROT\[3\] O *L 2.546e+00 *S 8.073e+00 9.172e+00 
HPROT\[2\] O *L 2.546e+00 *S 8.255e+00 8.065e+00 
HPROT\[1\] O *L 2.546e+00 *S 6.429e+00 6.283e+00 
HPROT\[0\] O *L 2.546e+00 *S 1.202e+01 1.381e+01 
HSIZE\[2\] O *L 2.546e+00 *S 7.455e+00 7.284e+00 
HSIZE\[1\] O *L 2.546e+00 *S 1.164e+01 1.333e+01 
HSIZE\[0\] O *L 2.546e+00 *S 1.252e+01 8.820e+00 
HTRANS\[1\] O *L 2.546e+00 *S 8.156e+00 6.707e+00 
HTRANS\[0\] O *L 2.546e+00 *S 6.371e+00 6.226e+00 
HWDATA\[31\] O *L 2.546e+00 *S 1.737e+01 1.675e+01 
HWDATA\[30\] O *L 2.546e+00 *S 1.973e+01 2.347e+01 
HWDATA\[29\] O *L 2.546e+00 *S 1.484e+01 1.410e+01 
HWDATA\[28\] O *L 2.546e+00 *S 1.848e+01 1.719e+01 
HWDATA\[27\] O *L 2.546e+00 *S 1.904e+01 1.767e+01 
HWDATA\[26\] O *L 2.546e+00 *S 1.047e+01 1.023e+01 
HWDATA\[25\] O *L 2.546e+00 *S 1.875e+01 1.742e+01 
HWDATA\[24\] O *L 2.546e+00 *S 1.655e+01 1.555e+01 
HWDATA\[23\] O *L 2.546e+00 *S 1.440e+01 1.375e+01 
HWDATA\[22\] O *L 2.546e+00 *S 2.733e+01 2.473e+01 
HWDATA\[21\] O *L 2.546e+00 *S 1.755e+01 1.643e+01 
HWDATA\[20\] O *L 2.546e+00 *S 1.757e+01 1.645e+01 
HWDATA\[19\] O *L 2.546e+00 *S 1.708e+01 1.600e+01 
HWDATA\[18\] O *L 2.546e+00 *S 9.725e+00 9.498e+00 
HWDATA\[17\] O *L 2.546e+00 *S 1.149e+01 1.122e+01 
HWDATA\[16\] O *L 2.546e+00 *S 9.754e+00 9.527e+00 
HWDATA\[15\] O *L 2.546e+00 *S 2.770e+01 2.502e+01 
HWDATA\[14\] O *L 2.546e+00 *S 1.463e+01 1.418e+01 
HWDATA\[13\] O *L 2.546e+00 *S 1.821e+01 1.696e+01 
HWDATA\[12\] O *L 2.546e+00 *S 1.892e+01 1.757e+01 
HWDATA\[11\] O *L 2.546e+00 *S 1.964e+01 1.817e+01 
HWDATA\[10\] O *L 2.546e+00 *S 2.127e+01 1.956e+01 
HWDATA\[9\] O *L 2.546e+00 *S 1.809e+01 1.689e+01 
HWDATA\[8\] O *L 2.546e+00 *S 1.707e+01 1.603e+01 
HWDATA\[7\] O *L 2.546e+00 *S 2.128e+01 1.607e+01 
HWDATA\[6\] O *L 2.546e+00 *S 2.196e+01 1.651e+01 
HWDATA\[5\] O *L 2.546e+00 *S 1.121e+01 1.094e+01 
HWDATA\[4\] O *L 2.546e+00 *S 1.276e+01 1.243e+01 
HWDATA\[3\] O *L 2.546e+00 *S 9.963e+00 9.730e+00 
HWDATA\[2\] O *L 2.546e+00 *S 1.191e+01 1.162e+01 
HWDATA\[1\] O *L 2.546e+00 *S 1.999e+01 1.524e+01 
HWDATA\[0\] O *L 2.546e+00 *S 1.629e+01 1.284e+01 
HWRITE O *L 2.546e+00 *S 1.459e+01 2.001e+01 
HRDATA\[31\] I *L 0.000e+00 *S 2.912e+00 2.412e+00 *D DFFRNQ_X1 
HRDATA\[30\] I *L 0.000e+00 *S 5.620e+00 4.653e+00 *D DFFRNQ_X1 
HRDATA\[29\] I *L 0.000e+00 *S 6.764e+00 5.619e+00 *D DFFRNQ_X1 
HRDATA\[28\] I *L 0.000e+00 *S 5.490e+00 4.544e+00 *D DFFRNQ_X1 
HRDATA\[27\] I *L 0.000e+00 *S 6.587e+00 5.469e+00 *D DFFRNQ_X1 
HRDATA\[26\] I *L 0.000e+00 *S 6.959e+00 5.783e+00 *D DFFRNQ_X1 
HRDATA\[25\] I *L 0.000e+00 *S 6.857e+00 5.697e+00 *D DFFRNQ_X1 
HRDATA\[24\] I *L 0.000e+00 *S 6.664e+00 5.535e+00 *D DFFRNQ_X1 
HRDATA\[23\] I *L 0.000e+00 *S 6.990e+00 5.810e+00 *D DFFRNQ_X1 
HRDATA\[22\] I *L 0.000e+00 *S 6.853e+00 5.694e+00 *D DFFRNQ_X1 
HRDATA\[21\] I *L 0.000e+00 *S 7.228e+00 6.011e+00 *D DFFRNQ_X1 
HRDATA\[20\] I *L 0.000e+00 *S 5.627e+00 4.659e+00 *D DFFRNQ_X1 
HRDATA\[19\] I *L 0.000e+00 *S 7.191e+00 5.979e+00 *D DFFRNQ_X1 
HRDATA\[18\] I *L 0.000e+00 *S 5.909e+00 4.897e+00 *D DFFRNQ_X1 
HRDATA\[17\] I *L 0.000e+00 *S 7.512e+00 6.250e+00 *D DFFRNQ_X1 
HRDATA\[16\] I *L 0.000e+00 *S 6.971e+00 5.794e+00 *D DFFRNQ_X1 
HRDATA\[15\] I *L 0.000e+00 *S 6.714e+00 5.576e+00 *D DFFRNQ_X1 
HRDATA\[14\] I *L 0.000e+00 *S 7.392e+00 6.149e+00 *D DFFRNQ_X1 
HRDATA\[13\] I *L 0.000e+00 *S 7.213e+00 5.997e+00 *D DFFRNQ_X1 
HRDATA\[12\] I *L 0.000e+00 *S 6.982e+00 5.803e+00 *D DFFRNQ_X1 
HRDATA\[11\] I *L 0.000e+00 *S 7.497e+00 6.238e+00 *D DFFRNQ_X1 
HRDATA\[10\] I *L 0.000e+00 *S 7.375e+00 6.135e+00 *D DFFRNQ_X1 
HRDATA\[9\] I *L 0.000e+00 *S 7.356e+00 6.118e+00 *D DFFRNQ_X1 
HRDATA\[8\] I *L 0.000e+00 *S 8.070e+00 6.717e+00 *D DFFRNQ_X1 
HRDATA\[7\] I *L 0.000e+00 *S 8.564e+00 7.129e+00 *D DFFRNQ_X1 
HRDATA\[6\] I *L 0.000e+00 *S 8.385e+00 6.980e+00 *D DFFRNQ_X1 
HRDATA\[5\] I *L 0.000e+00 *S 7.537e+00 6.271e+00 *D DFFRNQ_X1 
HRDATA\[4\] I *L 0.000e+00 *S 7.381e+00 6.140e+00 *D DFFRNQ_X1 
HRDATA\[3\] I *L 0.000e+00 *S 8.434e+00 7.020e+00 *D DFFRNQ_X1 
HRDATA\[2\] I *L 0.000e+00 *S 7.969e+00 6.632e+00 *D DFFRNQ_X1 
HRDATA\[1\] I *L 0.000e+00 *S 4.538e+00 3.740e+00 *D DFFRNQ_X1 
HRDATA\[0\] I *L 0.000e+00 *S 7.536e+00 6.271e+00 *D DFFRNQ_X1 
HREADY I *L 0.000e+00 *S 3.746e+01 3.185e+01 *D DFFRNQ_X1 
HRESP I *L 0.000e+00 *S 6.876e+00 5.713e+00 *D DFFRNQ_X1 
NMI I *L 0.000e+00 *S 5.092e+00 4.208e+00 *D DFFRNQ_X1 
IRQ\[15\] I *L 0.000e+00 *S 3.497e+00 2.888e+00 *D DFFRNQ_X1 
IRQ\[14\] I *L 0.000e+00 *S 3.216e+00 2.659e+00 *D DFFRNQ_X1 
IRQ\[13\] I *L 0.000e+00 *S 3.223e+00 2.665e+00 *D DFFRNQ_X1 
IRQ\[12\] I *L 0.000e+00 *S 3.592e+00 2.965e+00 *D DFFRNQ_X1 
IRQ\[11\] I *L 0.000e+00 *S 4.198e+00 3.458e+00 *D DFFRNQ_X1 
IRQ\[10\] I *L 0.000e+00 *S 4.218e+00 3.475e+00 *D DFFRNQ_X1 
IRQ\[9\] I *L 0.000e+00 *S 3.112e+00 2.575e+00 *D DFFRNQ_X1 
IRQ\[8\] I *L 0.000e+00 *S 3.141e+00 2.598e+00 *D DFFRNQ_X1 
IRQ\[7\] I *L 0.000e+00 *S 3.693e+00 3.047e+00 *D DFFRNQ_X1 
IRQ\[6\] I *L 0.000e+00 *S 3.358e+00 2.775e+00 *D DFFRNQ_X1 
IRQ\[5\] I *L 0.000e+00 *S 3.994e+00 3.292e+00 *D DFFRNQ_X1 
IRQ\[4\] I *L 0.000e+00 *S 3.715e+00 3.066e+00 *D DFFRNQ_X1 
IRQ\[3\] I *L 0.000e+00 *S 3.340e+00 2.760e+00 *D DFFRNQ_X1 
IRQ\[2\] I *L 0.000e+00 *S 3.343e+00 2.763e+00 *D DFFRNQ_X1 
IRQ\[1\] I *L 0.000e+00 *S 3.834e+00 3.162e+00 *D DFFRNQ_X1 
IRQ\[0\] I *L 0.000e+00 *S 3.884e+00 3.203e+00 *D DFFRNQ_X1 
TXEV O *L 2.546e+00 *S 1.833e+01 1.092e+01 
RXEV I *L 0.000e+00 *S 4.120e+00 3.395e+00 *D DFFRNQ_X1 
LOCKUP O *L 2.546e+00 *S 1.008e+01 9.841e+00 
SYSRESETREQ O *L 2.546e+00 *S 6.539e+00 5.512e+00 
SLEEPING O *L 2.546e+00 *S 4.044e+00 3.499e+00 
test_si I *L 0.000e+00 *S 0.000e+00 0.000e+00 
test_se I *L 0.000e+00 *S 0.000e+00 0.000e+00 

*R_NET HCLK 9.217e+01
*DRIVER HCLK
*CELL NULL
*C2_R1_C1 4.609e+01 1.435e+00 4.609e+01 
*LOADS
*RC clk_gate_u_logic_R1w2z4_reg/latch:CLK 2.518e-02
*RC clk_gate_u_logic_H9i2z4_reg/latch:CLK 2.518e-02
*RC clk_gate_u_logic_V1l2z4_reg/latch:CLK 2.518e-02
*RC clk_gate_u_logic_Omk2z4_reg/latch:CLK 2.518e-02
*RC u_logic_clk_gate_B1a3z4_reg/latch:CLK 2.518e-02
*RC u_logic_clk_gate_T7d3z4_reg/latch:CLK 2.518e-02
*RC u_logic_clk_gate_Ll73z4_reg/latch:CLK 2.518e-02
*RC u_logic_clk_gate_Cc63z4_reg/latch:CLK 2.518e-02
*RC u_logic_clk_gate_T253z4_reg/latch:CLK 2.518e-02
*RC u_logic_clk_gate_Kt33z4_reg/latch:CLK 2.518e-02
*RC u_logic_clk_gate_Bk23z4_reg/latch:CLK 2.518e-02
*RC u_logic_clk_gate_Sa13z4_reg/latch:CLK 2.518e-02
*RC u_logic_clk_gate_Yd03z4_reg/latch:CLK 2.518e-02
*RC u_logic_clk_gate_Ehz2z4_reg/latch:CLK 2.518e-02
*RC u_logic_clk_gate_Lpu2z4_reg/latch:CLK 2.518e-02
*RC u_logic_clk_gate_Cgt2z4_reg/latch:CLK 2.518e-02
*RC u_logic_clk_gate_R0t2z4_reg/latch:CLK 2.518e-02
*RC u_logic_clk_gate_Tqs2z4_reg/latch:CLK 2.518e-02
*RC u_logic_clk_gate_Vgs2z4_reg/latch:CLK 2.518e-02
*RC u_logic_clk_gate_O0o2z4_reg/latch:CLK 2.518e-02
*RC u_logic_clk_gate_Bdm2z4_reg/latch:CLK 2.518e-02
*RC u_logic_clk_gate_L8m2z4_reg/latch:CLK 2.518e-02
*RC u_logic_clk_gate_Fzl2z4_reg/latch:CLK 2.518e-02
*RC u_logic_clk_gate_Z4l2z4_reg/latch:CLK 2.518e-02
*RC u_logic_clk_gate_Svk2z4_reg/latch:CLK 2.518e-02
*RC u_logic_clk_gate_D7k2z4_reg/latch:CLK 2.518e-02
*RC u_logic_clk_gate_Koj2z4_reg/latch:CLK 2.518e-02
*RC u_logic_clk_gate_Glj2z4_reg/latch:CLK 2.518e-02
*RC u_logic_clk_gate_X2j2z4_reg/latch:CLK 2.518e-02
*RC u_logic_clk_gate_Kyi2z4_reg/latch:CLK 2.518e-02
*RC u_logic_clk_gate_Xti2z4_reg/latch:CLK 2.518e-02
*RC u_logic_clk_gate_Uqi2z4_reg/latch:CLK 2.518e-02
*RC u_logic_clk_gate_Fpi2z4_reg/latch:CLK 2.518e-02
*RC u_logic_clk_gate_Rni2z4_reg/latch:CLK 2.518e-02
*RC u_logic_clk_gate_J6i2z4_reg/latch:CLK 2.518e-02
*RC u_logic_Ypi3z4_reg:CLK 1.410e-02
*RC u_logic_V3o2z4_reg:CLK 1.410e-02
*RC u_logic_Ipn2z4_reg:CLK 1.410e-02
*RC u_logic_Qnn2z4_reg:CLK 1.410e-02
*RC u_logic_Rym2z4_reg:CLK 1.410e-02
*RC u_logic_Q4h3z4_reg:CLK 1.410e-02
*RC u_logic_Lul2z4_reg:CLK 1.410e-02
*RC u_logic_I6h3z4_reg:CLK 1.410e-02
*RC u_logic_Wuq2z4_reg:CLK 1.410e-02
*RC u_logic_Etq2z4_reg:CLK 1.410e-02
*RC u_logic_Oar2z4_reg:CLK 1.410e-02
*RC u_logic_W8r2z4_reg:CLK 1.410e-02
*RC u_logic_Ble3z4_reg:CLK 1.410e-02
*RC u_logic_Jje3z4_reg:CLK 1.410e-02
*RC u_logic_T8f3z4_reg:CLK 1.410e-02
*RC u_logic_C7f3z4_reg:CLK 1.410e-02
*RC u_logic_X0c3z4_reg:CLK 1.410e-02
*RC u_logic_Gzb3z4_reg:CLK 1.410e-02
*RC u_logic_Q0f3z4_reg:CLK 1.410e-02
*RC u_logic_N7c3z4_reg:CLK 1.410e-02
*RC u_logic_W5c3z4_reg:CLK 1.410e-02
*RC u_logic_Rnb3z4_reg:CLK 1.410e-02
*RC u_logic_F4c3z4_reg:CLK 1.410e-02
*RC u_logic_O2c3z4_reg:CLK 1.410e-02
*RC u_logic_Pxb3z4_reg:CLK 1.410e-02
*RC u_logic_Yvb3z4_reg:CLK 1.410e-02
*RC u_logic_Vac3z4_reg:CLK 1.410e-02
*RC u_logic_E9c3z4_reg:CLK 1.410e-02
*RC u_logic_Hub3z4_reg:CLK 1.410e-02
*RC u_logic_Qsb3z4_reg:CLK 1.410e-02
*RC u_logic_Zqb3z4_reg:CLK 1.410e-02
*RC u_logic_Mvi2z4_reg:CLK 1.410e-02
*RC u_logic_Jhy2z4_reg:CLK 1.410e-02
*RC u_logic_Nsk2z4_reg:CLK 1.410e-02
*RC u_logic_Emi2z4_reg:CLK 1.410e-02
*RC u_logic_U7w2z4_reg:CLK 1.410e-02
*RC u_logic_Npk2z4_reg:CLK 1.410e-02
*RC u_logic_Ipb3z4_reg:CLK 1.410e-02
*RC u_logic_Y9l2z4_reg:CLK 1.410e-02
*RC u_logic_Gxk2z4_reg:CLK 1.410e-02
*RC u_logic_Nbm2z4_reg:CLK 1.410e-02
*RC u_logic_Uyv2z4_reg:CLK 1.410e-02
*RC u_logic_Ywi2z4_reg:CLK 1.410e-02
*RC u_logic_A4t2z4_reg:CLK 1.410e-02
*RC u_logic_Hzj2z4_reg:CLK 1.410e-02
*RC u_logic_K3l2z4_reg:CLK 1.410e-02
*RC u_logic_Wbk2z4_reg:CLK 1.410e-02
*RC u_logic_Gji2z4_reg:CLK 1.410e-02
*RC u_logic_clk_gate_Ydw2z4_reg/latch:CLK 2.518e-02
*END

*R_NET HRESETn 8.873e+01
*DRIVER HRESETn
*CELL DFFRNQ_X1
*C2_R1_C1 4.436e+01 4.634e+00 4.436e+01 
*LOADS
*RC U5094:I 5.195e+01
*RC U5129:I 4.707e+01
*RC U5098:I 4.877e+01
*RC U5170:I 7.098e+01
*RC U5169:I 7.849e+01
*RC U5168:I 7.183e+01
*RC U5121:I 3.713e+01
*RC U5165:I 4.219e+01
*RC U5161:I 4.374e+01
*RC U5157:I 9.084e+01
*RC u_logic_G6d3z4_reg:SN 1.019e+02
*RC u_logic_Rix2z4_reg:SN 9.968e+01
*RC u_logic_K0u2z4_reg:SN 4.987e+01
*RC u_logic_Tvt2z4_reg:SN 1.854e+01
*RC u_logic_Vuo2z4_reg:SN 2.758e+01
*RC u_logic_Zfv2z4_reg:SN 4.677e+01
*RC u_logic_Eq63z4_reg:SN 3.673e+01
*RC u_logic_Ldf3z4_reg:SN 3.831e+01
*RC u_logic_U2s2z4_reg:SN 5.079e+01
*RC u_logic_U573z4_reg:SN 4.835e+01
*RC u_logic_Yj43z4_reg:SN 2.537e+01
*RC u_logic_Kaf3z4_reg:SN 9.549e+01
*RC u_logic_J433z4_reg:SN 3.125e+01
*RC u_logic_Aez2z4_reg:SN 6.735e+00
*RC u_logic_Umi3z4_reg:SN 4.059e+01
*RC u_logic_N8i3z4_reg:SN 9.471e+00
*RC u_logic_M4j2z4_reg:SN 2.291e+01
*RC u_logic_Z863z4_reg:SN 2.336e+01
*RC u_logic_I463z4_reg:SN 2.297e+01
*RC u_logic_Ki53z4_reg:SN 3.514e+01
*RC u_logic_Rd53z4_reg:SN 3.212e+00
*RC u_logic_Na53z4_reg:SN 5.148e+00
*RC u_logic_T253z4_reg:SN 8.997e+00
*RC u_logic_Qji3z4_reg:SN 3.545e+01
*RC u_logic_J5i3z4_reg:SN 4.549e+00
*RC u_logic_Tvh3z4_reg:SN 3.044e+01
*RC u_logic_Lph3z4_reg:SN 2.304e+01
*RC u_logic_A8h3z4_reg:SN 3.265e+01
*RC u_logic_Qrf3z4_reg:SN 2.042e+01
*RC u_logic_Hq33z4_reg:SN 2.655e+01
*RC u_logic_Ql33z4_reg:SN 3.527e+01
*RC u_logic_Bk33z4_reg:SN 3.948e+01
*RC u_logic_Sz23z4_reg:SN 3.325e+01
*RC u_logic_Ow23z4_reg:SN 2.684e+01
*RC u_logic_Zu23z4_reg:SN 1.865e+00
*RC u_logic_Kt23z4_reg:SN 6.129e+00
*RC u_logic_Vr23z4_reg:SN 3.219e+00
*RC u_logic_Ql23z4_reg:SN 4.580e+00
*RC u_logic_Bk23z4_reg:SN 6.784e+00
*RC u_logic_Ilf3z4_reg:SN 2.775e+01
*RC u_logic_Jq13z4_reg:SN 3.828e+01
*RC u_logic_Fli3z4_reg:SN 3.736e+01
*RC u_logic_Skh3z4_reg:SN 4.569e+00
*RC u_logic_B613z4_reg:SN 2.595e+01
*END

*R_NET n11475 2.048e+00
*DRIVER U8250:ZN
*CELL NAND2_X1
*C2_R1_C1 1.024e+00 8.149e-02 1.024e+00 
*LOADS
*RC U6623:A1 6.084e-02
*RC U6935:I 7.125e-02
*END

*R_NET n11476 3.070e+00
*DRIVER U7258:ZN
*CELL NAND2_X2
*C2_R1_C1 1.535e+00 9.279e-02 1.535e+00 
*LOADS
*RC U7296:I 1.231e-01
*RC U7300:A2 1.215e-01
*RC U6623:A2 1.509e-01
*END

*R_NET n11809 3.292e+00
*DRIVER U7265:ZN
*CELL NAND2_X1
*C2_R1_C1 1.646e+00 1.509e-01 1.646e+00 
*LOADS
*RC U7300:A1 2.504e-01
*RC U5902:I 8.168e-02
*RC U6623:A3 2.571e-01
*END

*R_NET HADDR\[28\] 6.066e+00
*DRIVER U8248:ZN
*CELL NAND2_X1
*C2_R1_C1 3.033e+00 5.677e-01 3.033e+00 
*LOADS
*RC U8777:A1 1.394e-01
*RC U8262:I 4.988e-02
*RC HADDR\[28\] 2.034e+00
*END

*R_NET HADDR\[27\] 8.639e+00
*DRIVER U8418:ZN
*CELL NAND2_X1
*C2_R1_C1 4.319e+00 1.650e+00 4.319e+00 
*LOADS
*RC U5109:A1 4.873e+00
*RC U8863:A1 3.189e-01
*RC HADDR\[27\] 1.248e+00
*END

*R_NET HADDR\[26\] 4.051e+00
*DRIVER U8413:ZN
*CELL NAND2_X1
*C2_R1_C1 2.026e+00 2.882e-01 2.026e+00 
*LOADS
*RC U9957:I 4.886e-02
*RC HADDR\[26\] 8.757e-01
*END

*R_NET HADDR\[25\] 5.086e+00
*DRIVER U8408:ZN
*CELL NAND2_X1
*C2_R1_C1 2.543e+00 2.623e-01 2.543e+00 
*LOADS
*RC U10485:A1 8.692e-02
*RC U9965:A1 1.543e-01
*RC HADDR\[25\] 8.464e-01
*END

*R_NET HADDR\[24\] 5.208e+00
*DRIVER U8403:ZN
*CELL NAND2_X1
*C2_R1_C1 2.604e+00 2.826e-01 2.604e+00 
*LOADS
*RC U10485:A2 1.006e-01
*RC U9972:I 5.328e-02
*RC HADDR\[24\] 9.220e-01
*END

*R_NET HADDR\[23\] 5.332e+00
*DRIVER U8397:ZN
*CELL NAND2_X1
*C2_R1_C1 2.666e+00 3.319e-01 2.666e+00 
*LOADS
*RC U10485:A3 1.080e-01
*RC U9976:I 1.717e-01
*RC HADDR\[23\] 9.838e-01
*END

*R_NET HADDR\[22\] 3.932e+00
*DRIVER U8392:ZN
*CELL NAND2_X1
*C2_R1_C1 1.966e+00 2.270e-01 1.966e+00 
*LOADS
*RC U9985:I 3.019e-02
*RC HADDR\[22\] 6.723e-01
*END

*R_NET HADDR\[21\] 4.930e+00
*DRIVER U8387:ZN
*CELL NAND2_X1
*C2_R1_C1 2.465e+00 2.044e-01 2.465e+00 
*LOADS
*RC U10463:I 1.286e-01
*RC U9996:A1 1.134e-01
*RC HADDR\[21\] 6.130e-01
*END

*R_NET HADDR\[20\] 3.924e+00
*DRIVER U8382:ZN
*CELL NAND2_X1
*C2_R1_C1 1.962e+00 2.185e-01 1.962e+00 
*LOADS
*RC U8984:I 8.568e-02
*RC HADDR\[20\] 6.140e-01
*END

*R_NET HADDR\[19\] 4.992e+00
*DRIVER U8377:ZN
*CELL NAND2_X1
*C2_R1_C1 2.496e+00 2.345e-01 2.496e+00 
*LOADS
*RC U10483:A1 1.048e-01
*RC U8987:A1 1.530e-01
*RC HADDR\[19\] 7.342e-01
*END

*R_NET HADDR\[18\] 5.074e+00
*DRIVER U8372:ZN
*CELL NAND2_X1
*C2_R1_C1 2.537e+00 2.667e-01 2.537e+00 
*LOADS
*RC U10483:A2 1.331e-01
*RC U8989:A1 2.570e-01
*RC HADDR\[18\] 8.496e-01
*END

*R_NET HADDR\[17\] 4.975e+00
*DRIVER U8367:ZN
*CELL NAND2_X1
*C2_R1_C1 2.487e+00 2.356e-01 2.487e+00 
*LOADS
*RC U10483:A3 1.337e-01
*RC U8991:A1 1.037e-01
*RC HADDR\[17\] 6.504e-01
*END

*R_NET HADDR\[16\] 4.021e+00
*DRIVER U8362:ZN
*CELL NAND2_X1
*C2_R1_C1 2.010e+00 2.736e-01 2.010e+00 
*LOADS
*RC U9063:I 1.022e-01
*RC HADDR\[16\] 7.451e-01
*END

*R_NET HADDR\[15\] 5.226e+00
*DRIVER U7988:ZN
*CELL NAND2_X1
*C2_R1_C1 2.613e+00 3.018e-01 2.613e+00 
*LOADS
*RC U11590:A1 1.939e-01
*RC U10482:A4 6.432e-02
*RC HADDR\[15\] 8.833e-01
*END

*R_NET HADDR\[14\] 5.264e+00
*DRIVER U8003:ZN
*CELL NAND2_X1
*C2_R1_C1 2.632e+00 3.293e-01 2.632e+00 
*LOADS
*RC U11596:A1 3.512e-01
*RC U10482:A3 1.201e-01
*RC HADDR\[14\] 7.478e-01
*END

*R_NET HADDR\[13\] 5.587e+00
*DRIVER U8357:ZN
*CELL NAND2_X1
*C2_R1_C1 2.793e+00 3.952e-01 2.793e+00 
*LOADS
*RC U10480:A1 1.695e-01
*RC U9125:I 1.416e-01
*RC HADDR\[13\] 1.238e+00
*END

*R_NET HADDR\[12\] 4.239e+00
*DRIVER U8352:ZN
*CELL NAND2_X1
*C2_R1_C1 2.119e+00 3.596e-01 2.119e+00 
*LOADS
*RC U9315:I 1.478e-01
*RC HADDR\[12\] 9.822e-01
*END

*R_NET HADDR\[11\] 7.044e+00
*DRIVER U8347:ZN
*CELL NAND2_X1
*C2_R1_C1 3.522e+00 5.138e-01 3.522e+00 
*LOADS
*RC U10478:A1 1.560e-01
*RC U10471:A2 1.087e-01
*RC U10082:I 1.151e-01
*RC HADDR\[11\] 1.817e+00
*END

*R_NET HADDR\[10\] 8.387e+00
*DRIVER U8341:ZN
*CELL NAND2_X1
*C2_R1_C1 4.193e+00 6.065e-01 4.193e+00 
*LOADS
*RC U10475:B 4.367e-01
*RC U10467:A1 4.591e-01
*RC U10464:A1 2.767e-01
*RC U8993:I 3.329e-01
*RC HADDR\[10\] 2.539e+00
*END

*R_NET HADDR\[9\] 7.681e+00
*DRIVER U8336:ZN
*CELL NAND2_X1
*C2_R1_C1 3.840e+00 5.491e-01 3.840e+00 
*LOADS
*RC U10476:A1 4.017e-01
*RC U10469:A1 4.239e-01
*RC U9276:I 5.234e-01
*RC HADDR\[9\] 2.185e+00
*END

*R_NET HADDR\[8\] 1.427e+01
*DRIVER U7998:ZN
*CELL NAND2_X1
*C2_R1_C1 7.135e+00 1.943e+00 7.135e+00 
*LOADS
*RC U11593:A1 2.980e+00
*RC U10884:A1 5.785e+00
*RC U10476:A2 3.612e+00
*RC U10466:I 2.781e+00
*RC U10465:B 3.422e+00
*RC HADDR\[8\] 6.895e+00
*END

*R_NET HADDR\[7\] 7.960e+00
*DRIVER U8330:ZN
*CELL NAND2_X1
*C2_R1_C1 3.980e+00 7.874e-01 3.980e+00 
*LOADS
*RC U10999:A1 5.243e-01
*RC U10469:A2 9.040e-01
*RC U9280:A1 1.324e+00
*RC HADDR\[7\] 3.087e+00
*END

*R_NET HADDR\[6\] 4.623e+00
*DRIVER U8325:ZN
*CELL NAND2_X1
*C2_R1_C1 2.312e+00 5.293e-01 2.312e+00 
*LOADS
*RC U9282:I 2.390e-01
*RC HADDR\[6\] 1.673e+00
*END

*R_NET HADDR\[5\] 6.543e+00
*DRIVER U8318:ZN
*CELL NAND2_X1
*C2_R1_C1 3.271e+00 8.609e-01 3.271e+00 
*LOADS
*RC U10457:A2 2.601e-01
*RC U9285:I 9.277e-01
*RC HADDR\[5\] 3.264e+00
*END

*R_NET HADDR\[4\] 1.042e+01
*DRIVER U8311:ZN
*CELL NAND2_X1
*C2_R1_C1 5.211e+00 1.793e+00 5.211e+00 
*LOADS
*RC U10491:A1 3.523e+00
*RC U10473:A1 2.041e+00
*RC U9288:I 1.941e+00
*RC HADDR\[4\] 5.068e+00
*END

*R_NET HADDR\[3\] 8.292e+00
*DRIVER U8305:ZN
*CELL NAND2_X1
*C2_R1_C1 4.146e+00 8.557e-01 4.146e+00 
*LOADS
*RC U10467:A2 1.289e+00
*RC U10457:A1 1.136e-01
*RC U9292:I 1.313e+00
*RC HADDR\[3\] 3.684e+00
*END

*R_NET HADDR\[2\] 9.536e+00
*DRIVER U8299:ZN
*CELL NAND2_X1
*C2_R1_C1 4.768e+00 8.960e-01 4.768e+00 
*LOADS
*RC U10999:A2 5.725e-01
*RC U10473:A2 1.398e+00
*RC U10464:A2 1.626e+00
*RC U9296:I 8.500e-01
*RC HADDR\[2\] 3.752e+00
*END

*R_NET HADDR\[1\] 4.732e+00
*DRIVER U5104:Z
*CELL AND2_X1
*C2_R1_C1 2.366e+00 9.645e-01 2.366e+00 
*LOADS
*RC HADDR\[1\] 3.158e+00
*END

*R_NET HADDR\[0\] 4.780e+00
*DRIVER U8291:ZN
*CELL NOR3_X1
*C2_R1_C1 2.390e+00 9.796e-01 2.390e+00 
*LOADS
*RC HADDR\[0\] 3.223e+00
*END

*R_NET HPROT\[3\] 3.719e+00
*DRIVER U7241:ZN
*CELL NAND2_X1
*C2_R1_C1 1.859e+00 5.797e-01 1.859e+00 
*LOADS
*RC HPROT\[3\] 1.702e+00
*END

*R_NET n11477 2.936e+00
*DRIVER U7300:Z
*CELL OR2_X1
*C2_R1_C1 1.468e+00 6.297e-02 1.468e+00 
*LOADS
*RC U5400:A1 2.139e-02
*RC U6364:I 9.902e-02
*RC U7241:A1 8.182e-02
*END

*R_NET HPROT\[0\] 6.777e+00
*DRIVER U8075:ZN
*CELL NAND2_X1
*C2_R1_C1 3.389e+00 9.838e-01 3.389e+00 
*LOADS
*RC U8502:A2 3.212e-01
*RC U8256:I 2.802e-01
*RC HPROT\[0\] 3.465e+00
*END

*R_NET HSIZE\[1\] 6.394e+00
*DRIVER U8289:ZN
*CELL NAND2_X1
*C2_R1_C1 3.197e+00 1.195e+00 3.197e+00 
*LOADS
*RC U10480:A4 2.359e+00
*RC HSIZE\[1\] 3.658e+00
*END

*R_NET HSIZE\[0\] 4.637e+00
*DRIVER U8286:ZN
*CELL NOR3_X1
*C2_R1_C1 2.318e+00 9.267e-01 2.318e+00 
*LOADS
*RC HSIZE\[0\] 3.005e+00
*END

*R_NET HTRANS\[1\] 2.946e+00
*DRIVER U5490:ZN
*CELL NOR2_X1
*C2_R1_C1 1.473e+00 2.455e-01 1.473e+00 
*LOADS
*RC HTRANS\[1\] 6.576e-01
*END

*R_NET HWDATA\[31\] 1.206e+01
*DRIVER U7607:ZN
*CELL INV_X1
*C2_R1_C1 6.030e+00 1.823e+00 6.030e+00 
*LOADS
*RC U10982:A2 1.801e+00
*RC u_logic_Azs2z4_reg:D 4.675e+00
*RC u_logic_Cps2z4_reg:D 4.618e+00
*RC u_logic_Qrp2z4_reg:D 3.509e+00
*RC u_logic_H8l2z4_reg:D 5.015e+00
*RC u_logic_Bjd3z4_reg:D 3.820e+00
*RC HWDATA\[31\] 5.319e+00
*END

*R_NET HWDATA\[30\] 1.472e+01
*DRIVER U7910:ZN
*CELL NAND2_X1
*C2_R1_C1 7.362e+00 2.255e+00 7.362e+00 
*LOADS
*RC U11825:A2 6.846e+00
*RC U10979:I 2.742e+00
*RC u_logic_Jxs2z4_reg:D 1.032e+01
*RC u_logic_Lns2z4_reg:D 9.499e+00
*RC u_logic_Aqp2z4_reg:D 8.529e+00
*RC u_logic_Q6l2z4_reg:D 1.071e+01
*RC u_logic_Lhd3z4_reg:D 8.212e+00
*RC HWDATA\[30\] 1.131e+01
*END

*R_NET HWDATA\[29\] 7.178e+00
*DRIVER U7914:ZN
*CELL OAI21_X1
*C2_R1_C1 3.589e+00 1.538e+00 3.589e+00 
*LOADS
*RC U10982:A4 2.262e+00
*RC HWDATA\[29\] 6.265e+00
*END

*R_NET HWDATA\[28\] 9.704e+00
*DRIVER U7917:ZN
*CELL OAI21_X1
*C2_R1_C1 4.852e+00 1.940e+00 4.852e+00 
*LOADS
*RC U10982:A3 2.820e+00
*RC U10964:A2 4.595e+00
*RC HWDATA\[28\] 8.101e+00
*END

*R_NET HWDATA\[27\] 1.009e+01
*DRIVER U7920:ZN
*CELL OAI21_X1
*C2_R1_C1 5.044e+00 2.094e+00 5.044e+00 
*LOADS
*RC U11716:A2 5.010e+00
*RC U10980:A2 2.552e+00
*RC HWDATA\[27\] 8.396e+00
*END

*R_NET HWDATA\[26\] 5.366e+00
*DRIVER U7893:ZN
*CELL INV_X1
*C2_R1_C1 2.683e+00 8.803e-01 2.683e+00 
*LOADS
*RC U11487:A2 1.130e-01
*RC HWDATA\[26\] 3.032e+00
*END

*R_NET HWDATA\[25\] 9.940e+00
*DRIVER U7924:ZN
*CELL OAI21_X1
*C2_R1_C1 4.970e+00 1.997e+00 4.970e+00 
*LOADS
*RC U11713:A2 5.231e+00
*RC U10980:A1 2.411e+00
*RC HWDATA\[25\] 8.198e+00
*END

*R_NET HWDATA\[24\] 8.347e+00
*DRIVER U7896:ZN
*CELL OAI21_X1
*C2_R1_C1 4.174e+00 1.516e+00 4.174e+00 
*LOADS
*RC U11487:A3 2.393e+00
*RC U10985:A3 2.426e+00
*RC HWDATA\[24\] 6.739e+00
*END

*R_NET HWDATA\[18\] 4.821e+00
*DRIVER U8243:ZN
*CELL INV_X1
*C2_R1_C1 2.410e+00 8.657e-01 2.410e+00 
*LOADS
*RC u_logic_Xyn2z4_reg:D 4.976e-01
*RC HWDATA\[18\] 2.858e+00
*END

*R_NET HWDATA\[16\] 4.842e+00
*DRIVER U8240:ZN
*CELL INV_X1
*C2_R1_C1 2.421e+00 8.747e-01 2.421e+00 
*LOADS
*RC u_logic_Gdo2z4_reg:D 4.208e-01
*RC HWDATA\[16\] 2.895e+00
*END

*R_NET HWRITE 9.664e+00
*DRIVER U8236:ZN
*CELL NAND3_X1
*C2_R1_C1 4.832e+00 2.039e+00 4.832e+00 
*LOADS
*RC U10885:I 4.331e+00
*RC u_logic_Y9t2z4_reg:D 3.658e+00
*RC HWRITE 6.130e+00
*END

*R_NET HRDATA\[31\] 1.938e+00
*DRIVER HRDATA\[31\]
*CELL DFFRNQ_X1
*C2_R1_C1 9.688e-01 4.628e-01 9.688e-01 
*LOADS
*RC U8562:I 5.880e-01
*END

*R_NET HRDATA\[30\] 4.425e+00
*DRIVER HRDATA\[30\]
*CELL DFFRNQ_X1
*C2_R1_C1 2.212e+00 9.899e-01 2.212e+00 
*LOADS
*RC U11151:A1 1.230e+00
*RC U9102:B2 2.044e+00
*END

*R_NET HRDATA\[29\] 5.578e+00
*DRIVER HRDATA\[29\]
*CELL DFFRNQ_X1
*C2_R1_C1 2.789e+00 1.375e+00 2.789e+00 
*LOADS
*RC U11098:A1 1.234e+00
*RC U9166:A1 3.369e+00
*END

*R_NET HRDATA\[28\] 4.317e+00
*DRIVER HRDATA\[28\]
*CELL DFFRNQ_X1
*C2_R1_C1 2.159e+00 9.482e-01 2.159e+00 
*LOADS
*RC U11147:A1 8.108e-01
*RC U8811:A2 1.975e+00
*END

*R_NET HRDATA\[27\] 5.399e+00
*DRIVER HRDATA\[27\]
*CELL DFFRNQ_X1
*C2_R1_C1 2.700e+00 1.401e+00 2.700e+00 
*LOADS
*RC U11143:A1 9.023e-01
*RC U9010:A1 3.300e+00
*END

*R_NET HRDATA\[26\] 5.803e+00
*DRIVER HRDATA\[26\]
*CELL DFFRNQ_X1
*C2_R1_C1 2.902e+00 1.467e+00 2.902e+00 
*LOADS
*RC U11139:A1 1.415e+00
*RC U8892:A2 3.658e+00
*END

*R_NET HRDATA\[25\] 5.670e+00
*DRIVER HRDATA\[25\]
*CELL DFFRNQ_X1
*C2_R1_C1 2.835e+00 1.450e+00 2.835e+00 
*LOADS
*RC U11135:A1 1.451e+00
*RC U9229:A1 3.470e+00
*END

*R_NET HRDATA\[24\] 5.475e+00
*DRIVER HRDATA\[24\]
*CELL DFFRNQ_X1
*C2_R1_C1 2.737e+00 1.400e+00 2.737e+00 
*LOADS
*RC U11131:A1 1.193e+00
*RC U9484:B2 3.427e+00
*END

*R_NET HRDATA\[23\] 5.803e+00
*DRIVER HRDATA\[23\]
*CELL DFFRNQ_X1
*C2_R1_C1 2.901e+00 1.559e+00 2.901e+00 
*LOADS
*RC U11127:A1 3.408e+00
*RC U8620:B2 2.727e+00
*END

*R_NET HRDATA\[22\] 5.687e+00
*DRIVER HRDATA\[22\]
*CELL DFFRNQ_X1
*C2_R1_C1 2.844e+00 1.490e+00 2.844e+00 
*LOADS
*RC U11123:A1 3.067e+00
*RC U9079:A2 2.689e+00
*END

*R_NET HRDATA\[21\] 6.074e+00
*DRIVER HRDATA\[21\]
*CELL DFFRNQ_X1
*C2_R1_C1 3.037e+00 1.605e+00 3.037e+00 
*LOADS
*RC U11119:A1 3.007e+00
*RC U9148:A2 3.540e+00
*END

*R_NET HRDATA\[20\] 4.459e+00
*DRIVER HRDATA\[20\]
*CELL DFFRNQ_X1
*C2_R1_C1 2.229e+00 9.944e-01 2.229e+00 
*LOADS
*RC U11115:A1 1.475e+00
*RC U8825:A1 2.077e+00
*END

*R_NET HRDATA\[19\] 6.026e+00
*DRIVER HRDATA\[19\]
*CELL DFFRNQ_X1
*C2_R1_C1 3.013e+00 1.628e+00 3.013e+00 
*LOADS
*RC U11111:A1 3.149e+00
*RC U9015:A2 3.219e+00
*END

*R_NET HRDATA\[18\] 4.748e+00
*DRIVER HRDATA\[18\]
*CELL DFFRNQ_X1
*C2_R1_C1 2.374e+00 1.129e+00 2.374e+00 
*LOADS
*RC U11107:A1 1.228e+00
*RC U8935:A2 2.482e+00
*END

*R_NET HRDATA\[17\] 6.360e+00
*DRIVER HRDATA\[17\]
*CELL DFFRNQ_X1
*C2_R1_C1 3.180e+00 1.708e+00 3.180e+00 
*LOADS
*RC U11103:A1 3.532e+00
*RC U9244:A2 3.781e+00
*END

*R_NET HRDATA\[16\] 5.806e+00
*DRIVER HRDATA\[16\]
*CELL DFFRNQ_X1
*C2_R1_C1 2.903e+00 1.537e+00 2.903e+00 
*LOADS
*RC U11085:A1 2.950e+00
*RC U9488:A2 3.084e+00
*END

*R_NET HRDATA\[15\] 5.569e+00
*DRIVER HRDATA\[15\]
*CELL DFFRNQ_X1
*C2_R1_C1 2.784e+00 1.046e+00 2.784e+00 
*LOADS
*RC U11341:A1 1.107e+00
*RC U11095:A1 8.975e-01
*RC U8599:A2 2.536e+00
*END

*R_NET HRDATA\[14\] 6.251e+00
*DRIVER HRDATA\[14\]
*CELL DFFRNQ_X1
*C2_R1_C1 3.126e+00 1.237e+00 3.126e+00 
*LOADS
*RC U11343:I 4.589e-01
*RC U11153:A1 5.180e-01
*RC U9090:A2 3.285e+00
*END

*R_NET HRDATA\[13\] 6.046e+00
*DRIVER HRDATA\[13\]
*CELL DFFRNQ_X1
*C2_R1_C1 3.023e+00 1.142e+00 3.023e+00 
*LOADS
*RC U11391:I 8.466e-01
*RC U11101:A1 9.279e-01
*RC U9184:A2 2.698e+00
*END

*R_NET HRDATA\[12\] 5.815e+00
*DRIVER HRDATA\[12\]
*CELL DFFRNQ_X1
*C2_R1_C1 2.907e+00 1.099e+00 2.907e+00 
*LOADS
*RC U11372:I 7.755e-01
*RC U11149:A1 6.484e-01
*RC U8809:A2 2.640e+00
*END

*R_NET HRDATA\[11\] 6.346e+00
*DRIVER HRDATA\[11\]
*CELL DFFRNQ_X1
*C2_R1_C1 3.173e+00 1.314e+00 3.173e+00 
*LOADS
*RC U11375:I 7.220e-01
*RC U11145:A1 6.565e-01
*RC U9029:A2 3.417e+00
*END

*R_NET HRDATA\[10\] 6.224e+00
*DRIVER HRDATA\[10\]
*CELL DFFRNQ_X1
*C2_R1_C1 3.112e+00 1.208e+00 3.112e+00 
*LOADS
*RC U11378:I 5.355e-01
*RC U11141:A1 5.663e-01
*RC U8896:A2 3.125e+00
*END

*R_NET HRDATA\[9\] 6.214e+00
*DRIVER HRDATA\[9\]
*CELL DFFRNQ_X1
*C2_R1_C1 3.107e+00 1.207e+00 3.107e+00 
*LOADS
*RC U11381:I 5.968e-01
*RC U11137:A1 6.749e-01
*RC U9217:A2 3.093e+00
*END

*R_NET HRDATA\[8\] 6.891e+00
*DRIVER HRDATA\[8\]
*CELL DFFRNQ_X1
*C2_R1_C1 3.446e+00 1.448e+00 3.446e+00 
*LOADS
*RC U11384:I 4.675e-01
*RC U11133:A1 5.705e-01
*RC U9467:B2 4.107e+00
*END

*R_NET HRDATA\[7\] 7.428e+00
*DRIVER HRDATA\[7\]
*CELL DFFRNQ_X1
*C2_R1_C1 3.714e+00 1.707e+00 3.714e+00 
*LOADS
*RC U11387:I 3.755e+00
*RC U11129:A1 4.048e+00
*RC U8645:A2 3.406e+00
*END

*R_NET HRDATA\[6\] 7.246e+00
*DRIVER HRDATA\[6\]
*CELL DFFRNQ_X1
*C2_R1_C1 3.623e+00 1.639e+00 3.623e+00 
*LOADS
*RC U11389:I 3.525e+00
*RC U11125:A1 3.750e+00
*RC U9066:A2 3.283e+00
*END

*R_NET HRDATA\[5\] 6.386e+00
*DRIVER HRDATA\[5\]
*CELL DFFRNQ_X1
*C2_R1_C1 3.193e+00 1.206e+00 3.193e+00 
*LOADS
*RC U11394:I 1.504e+00
*RC U11121:A1 1.231e+00
*RC U9128:A2 3.251e+00
*END

*R_NET HRDATA\[4\] 6.230e+00
*DRIVER HRDATA\[4\]
*CELL DFFRNQ_X1
*C2_R1_C1 3.115e+00 1.244e+00 3.115e+00 
*LOADS
*RC U11396:I 1.662e+00
*RC U11117:A1 1.301e+00
*RC U8837:A2 3.252e+00
*END

*R_NET HRDATA\[3\] 7.296e+00
*DRIVER HRDATA\[3\]
*CELL DFFRNQ_X1
*C2_R1_C1 3.648e+00 1.632e+00 3.648e+00 
*LOADS
*RC U11398:I 3.405e+00
*RC U11113:A1 3.747e+00
*RC U9037:A2 3.563e+00
*END

*R_NET HRDATA\[2\] 6.835e+00
*DRIVER HRDATA\[2\]
*CELL DFFRNQ_X1
*C2_R1_C1 3.417e+00 1.410e+00 3.417e+00 
*LOADS
*RC U11400:I 1.798e+00
*RC U11109:A1 1.517e+00
*RC U8913:A2 3.979e+00
*END

*R_NET HRDATA\[1\] 3.332e+00
*DRIVER HRDATA\[1\]
*CELL DFFRNQ_X1
*C2_R1_C1 1.666e+00 5.919e-01 1.666e+00 
*LOADS
*RC U11105:A1 8.221e-01
*RC U9233:I 1.029e+00
*END

*R_NET HRDATA\[0\] 6.386e+00
*DRIVER HRDATA\[0\]
*CELL DFFRNQ_X1
*C2_R1_C1 3.193e+00 1.283e+00 3.193e+00 
*LOADS
*RC U11403:I 1.855e+00
*RC U11092:A1 1.382e+00
*RC U9471:A2 3.438e+00
*END

*R_NET HREADY 3.760e+01
*DRIVER HREADY
*CELL DFFRNQ_X1
*C2_R1_C1 1.880e+01 2.086e+00 1.880e+01 
*LOADS
*RC U5128:A2 4.345e+00
*RC U7980:A1 1.091e+01
*RC U5492:I 1.039e+01
*RC U7517:A1 7.503e+00
*RC U8502:A1 1.387e+01
*RC U8504:A1 2.122e+01
*RC U5087:I 6.583e+00
*RC U11817:B 1.366e+01
*RC U11801:B 1.206e+01
*RC U11799:A1 1.273e+01
*RC U11781:A2 2.188e+01
*RC U11668:A1 1.207e+01
*RC U11054:A1 2.178e+01
*RC U10833:B2 1.369e+01
*RC U10795:A1 1.318e+01
*RC U10747:A1 2.508e+01
*RC U10746:A1 1.758e+01
*RC U10507:A1 2.561e+01
*RC U10429:A1 2.438e+01
*RC U10381:A2 8.005e+00
*RC U10089:A1 1.210e+01
*RC U10077:B 1.171e+01
*RC U10001:A1 1.176e+01
*RC U9874:A1 7.485e+00
*RC U8018:A1 2.466e+01
*RC u_logic_clk_gate_J6i2z4_reg/latch:E 6.146e+00
*END

*R_NET HRESP 5.758e+00
*DRIVER HRESP
*CELL DFFRNQ_X1
*C2_R1_C1 2.879e+00 1.099e+00 2.879e+00 
*LOADS
*RC U11798:A1 2.299e+00
*RC U8658:A2 2.629e+00
*RC U7836:A1 1.925e+00
*END

*R_NET NMI 3.943e+00
*DRIVER NMI
*CELL DFFRNQ_X1
*C2_R1_C1 1.972e+00 8.958e-01 1.972e+00 
*LOADS
*RC U11741:B 1.736e+00
*RC U10923:A2 1.701e+00
*END

*R_NET IRQ\[15\] 2.441e+00
*DRIVER IRQ\[15\]
*CELL DFFRNQ_X1
*C2_R1_C1 1.220e+00 2.819e-01 1.220e+00 
*LOADS
*RC U11770:A2 3.868e-01
*RC U8115:B1 3.272e-01
*END

*R_NET IRQ\[14\] 2.222e+00
*DRIVER IRQ\[14\]
*CELL DFFRNQ_X1
*C2_R1_C1 1.111e+00 1.544e-01 1.111e+00 
*LOADS
*RC U11708:A2 1.824e-01
*RC U8124:A1 1.900e-01
*END

*R_NET IRQ\[13\] 2.228e+00
*DRIVER IRQ\[13\]