*SPEF "IEEE 1481-1999"
*DESIGN "xbar"
*DATE "Thu Sep 12 22:02:35 2019"
*VENDOR "SYNOPSYS INC"
*PROGRAM "Synopsys Design Compiler cmos"
*VERSION "P-2019.03-SP1"
*DESIGN_FLOW "SYNTHESIS"
*DIVIDER /
*DELIMITER :
*BUS_DELIMITER []
*T_UNIT 0.0010 NS
*C_UNIT 0.0010 PF
*R_UNIT 1.0 KOHM
*L_UNIT 1.0 HENRY

*PORTS

clk I *L 0.000e+00 *S 0.000e+00 0.000e+00 
reset I *L 0.000e+00 *S 4.854e+01 4.519e+01 *D DFFRNQ_X1 
in\[383\] I *L 0.000e+00 *S 2.428e+00 2.001e+00 *D DFFRNQ_X1 
in\[382\] I *L 0.000e+00 *S 1.324e+00 1.088e+00 *D DFFRNQ_X1 
in\[381\] I *L 0.000e+00 *S 2.659e+00 2.182e+00 *D DFFRNQ_X1 
in\[380\] I *L 0.000e+00 *S 2.148e+00 1.782e+00 *D DFFRNQ_X1 
in\[379\] I *L 0.000e+00 *S 1.320e+00 1.085e+00 *D DFFRNQ_X1 
in\[378\] I *L 0.000e+00 *S 2.777e+00 2.274e+00 *D DFFRNQ_X1 
in\[377\] I *L 0.000e+00 *S 1.346e+00 1.107e+00 *D DFFRNQ_X1 
in\[376\] I *L 0.000e+00 *S 1.356e+00 1.115e+00 *D DFFRNQ_X1 
in\[375\] I *L 0.000e+00 *S 1.324e+00 1.088e+00 *D DFFRNQ_X1 
in\[374\] I *L 0.000e+00 *S 1.318e+00 1.083e+00 *D DFFRNQ_X1 
in\[373\] I *L 0.000e+00 *S 1.321e+00 1.085e+00 *D DFFRNQ_X1 
in\[372\] I *L 0.000e+00 *S 1.335e+00 1.097e+00 *D DFFRNQ_X1 
in\[371\] I *L 0.000e+00 *S 1.773e+00 1.477e+00 *D DFFRNQ_X1 
in\[370\] I *L 0.000e+00 *S 2.563e+00 2.107e+00 *D DFFRNQ_X1 
in\[369\] I *L 0.000e+00 *S 1.615e+00 1.339e+00 *D DFFRNQ_X1 
in\[368\] I *L 0.000e+00 *S 1.866e+00 1.557e+00 *D DFFRNQ_X1 
in\[367\] I *L 0.000e+00 *S 1.629e+00 1.352e+00 *D DFFRNQ_X1 
in\[366\] I *L 0.000e+00 *S 1.783e+00 1.485e+00 *D DFFRNQ_X1 
in\[365\] I *L 0.000e+00 *S 1.610e+00 1.336e+00 *D DFFRNQ_X1 
in\[364\] I *L 0.000e+00 *S 3.656e+00 3.005e+00 *D DFFRNQ_X1 
in\[363\] I *L 0.000e+00 *S 3.617e+00 2.967e+00 *D DFFRNQ_X1 
in\[362\] I *L 0.000e+00 *S 4.059e+00 3.387e+00 *D DFFRNQ_X1 
in\[361\] I *L 0.000e+00 *S 2.797e+00 2.289e+00 *D DFFRNQ_X1 
in\[360\] I *L 0.000e+00 *S 2.127e+00 1.766e+00 *D DFFRNQ_X1 
in\[359\] I *L 0.000e+00 *S 2.383e+00 1.966e+00 *D DFFRNQ_X1 
in\[358\] I *L 0.000e+00 *S 2.518e+00 2.071e+00 *D DFFRNQ_X1 
in\[357\] I *L 0.000e+00 *S 2.821e+00 2.308e+00 *D DFFRNQ_X1 
in\[356\] I *L 0.000e+00 *S 2.831e+00 2.316e+00 *D DFFRNQ_X1 
in\[355\] I *L 0.000e+00 *S 2.914e+00 2.381e+00 *D DFFRNQ_X1 
in\[354\] I *L 0.000e+00 *S 1.319e+00 1.084e+00 *D DFFRNQ_X1 
in\[353\] I *L 0.000e+00 *S 2.349e+00 1.939e+00 *D DFFRNQ_X1 
in\[352\] I *L 0.000e+00 *S 3.056e+00 2.492e+00 *D DFFRNQ_X1 
in\[351\] I *L 0.000e+00 *S 1.473e+01 1.328e+01 *D DFFRNQ_X1 
in\[350\] I *L 0.000e+00 *S 1.458e+01 1.313e+01 *D DFFRNQ_X1 
in\[349\] I *L 0.000e+00 *S 1.389e+01 1.247e+01 *D DFFRNQ_X1 
in\[348\] I *L 0.000e+00 *S 1.398e+01 1.256e+01 *D DFFRNQ_X1 
in\[347\] I *L 0.000e+00 *S 1.196e+01 1.061e+01 *D DFFRNQ_X1 
in\[346\] I *L 0.000e+00 *S 1.404e+01 1.261e+01 *D DFFRNQ_X1 
in\[345\] I *L 0.000e+00 *S 1.295e+01 1.157e+01 *D DFFRNQ_X1 
in\[344\] I *L 0.000e+00 *S 1.344e+01 1.204e+01 *D DFFRNQ_X1 
in\[343\] I *L 0.000e+00 *S 1.244e+01 1.108e+01 *D DFFRNQ_X1 
in\[342\] I *L 0.000e+00 *S 1.323e+01 1.184e+01 *D DFFRNQ_X1 
in\[341\] I *L 0.000e+00 *S 1.241e+01 1.104e+01 *D DFFRNQ_X1 
in\[340\] I *L 0.000e+00 *S 1.371e+01 1.230e+01 *D DFFRNQ_X1 
in\[339\] I *L 0.000e+00 *S 1.221e+01 1.086e+01 *D DFFRNQ_X1 
in\[338\] I *L 0.000e+00 *S 1.186e+01 1.052e+01 *D DFFRNQ_X1 
in\[337\] I *L 0.000e+00 *S 1.230e+01 1.094e+01 *D DFFRNQ_X1 
in\[336\] I *L 0.000e+00 *S 1.185e+01 1.051e+01 *D DFFRNQ_X1 
in\[335\] I *L 0.000e+00 *S 1.185e+01 1.051e+01 *D DFFRNQ_X1 
in\[334\] I *L 0.000e+00 *S 1.195e+01 1.061e+01 *D DFFRNQ_X1 
in\[333\] I *L 0.000e+00 *S 1.154e+01 1.021e+01 *D DFFRNQ_X1 
in\[332\] I *L 0.000e+00 *S 1.340e+01 1.200e+01 *D DFFRNQ_X1 
in\[331\] I *L 0.000e+00 *S 1.292e+01 1.154e+01 *D DFFRNQ_X1 
in\[330\] I *L 0.000e+00 *S 1.433e+01 1.290e+01 *D DFFRNQ_X1 
in\[329\] I *L 0.000e+00 *S 1.265e+01 1.128e+01 *D DFFRNQ_X1 
in\[328\] I *L 0.000e+00 *S 1.201e+01 1.066e+01 *D DFFRNQ_X1 
in\[327\] I *L 0.000e+00 *S 1.413e+01 1.270e+01 *D DFFRNQ_X1 
in\[326\] I *L 0.000e+00 *S 1.452e+01 1.308e+01 *D DFFRNQ_X1 
in\[325\] I *L 0.000e+00 *S 1.249e+01 1.112e+01 *D DFFRNQ_X1 
in\[324\] I *L 0.000e+00 *S 1.443e+01 1.299e+01 *D DFFRNQ_X1 
in\[323\] I *L 0.000e+00 *S 1.249e+01 1.112e+01 *D DFFRNQ_X1 
in\[322\] I *L 0.000e+00 *S 1.313e+01 1.174e+01 *D DFFRNQ_X1 
in\[321\] I *L 0.000e+00 *S 1.413e+01 1.270e+01 *D DFFRNQ_X1 
in\[320\] I *L 0.000e+00 *S 1.250e+01 1.113e+01 *D DFFRNQ_X1 
in\[319\] I *L 0.000e+00 *S 2.365e+00 1.952e+00 *D DFFRNQ_X1 
in\[318\] I *L 0.000e+00 *S 1.469e+00 1.213e+00 *D DFFRNQ_X1 
in\[317\] I *L 0.000e+00 *S 2.674e+00 2.194e+00 *D DFFRNQ_X1 
in\[316\] I *L 0.000e+00 *S 2.102e+00 1.747e+00 *D DFFRNQ_X1 
in\[315\] I *L 0.000e+00 *S 1.391e+00 1.146e+00 *D DFFRNQ_X1 
in\[314\] I *L 0.000e+00 *S 2.966e+00 2.422e+00 *D DFFRNQ_X1 
in\[313\] I *L 0.000e+00 *S 1.494e+00 1.235e+00 *D DFFRNQ_X1 
in\[312\] I *L 0.000e+00 *S 1.491e+00 1.233e+00 *D DFFRNQ_X1 
in\[311\] I *L 0.000e+00 *S 1.326e+00 1.090e+00 *D DFFRNQ_X1 
in\[310\] I *L 0.000e+00 *S 1.323e+00 1.087e+00 *D DFFRNQ_X1 
in\[309\] I *L 0.000e+00 *S 1.464e+00 1.209e+00 *D DFFRNQ_X1 
in\[308\] I *L 0.000e+00 *S 1.474e+00 1.218e+00 *D DFFRNQ_X1 
in\[307\] I *L 0.000e+00 *S 2.153e+00 1.786e+00 *D DFFRNQ_X1 
in\[306\] I *L 0.000e+00 *S 2.622e+00 2.153e+00 *D DFFRNQ_X1 
in\[305\] I *L 0.000e+00 *S 1.884e+00 1.572e+00 *D DFFRNQ_X1 
in\[304\] I *L 0.000e+00 *S 1.846e+00 1.540e+00 *D DFFRNQ_X1 
in\[303\] I *L 0.000e+00 *S 1.796e+00 1.497e+00 *D DFFRNQ_X1 
in\[302\] I *L 0.000e+00 *S 1.894e+00 1.581e+00 *D DFFRNQ_X1 
in\[301\] I *L 0.000e+00 *S 1.872e+00 1.562e+00 *D DFFRNQ_X1 
in\[300\] I *L 0.000e+00 *S 3.501e+00 2.858e+00 *D DFFRNQ_X1 
in\[299\] I *L 0.000e+00 *S 3.589e+00 2.941e+00 *D DFFRNQ_X1 
in\[298\] I *L 0.000e+00 *S 3.878e+00 3.215e+00 *D DFFRNQ_X1 
in\[297\] I *L 0.000e+00 *S 2.743e+00 2.248e+00 *D DFFRNQ_X1 
in\[296\] I *L 0.000e+00 *S 2.082e+00 1.731e+00 *D DFFRNQ_X1 
in\[295\] I *L 0.000e+00 *S 2.535e+00 2.085e+00 *D DFFRNQ_X1 
in\[294\] I *L 0.000e+00 *S 3.042e+00 2.482e+00 *D DFFRNQ_X1 
in\[293\] I *L 0.000e+00 *S 3.370e+00 2.738e+00 *D DFFRNQ_X1 
in\[292\] I *L 0.000e+00 *S 3.173e+00 2.584e+00 *D DFFRNQ_X1 
in\[291\] I *L 0.000e+00 *S 3.364e+00 2.733e+00 *D DFFRNQ_X1 
in\[290\] I *L 0.000e+00 *S 1.366e+00 1.124e+00 *D DFFRNQ_X1 
in\[289\] I *L 0.000e+00 *S 2.243e+00 1.857e+00 *D DFFRNQ_X1 
in\[288\] I *L 0.000e+00 *S 3.202e+00 2.607e+00 *D DFFRNQ_X1 
in\[287\] I *L 0.000e+00 *S 1.462e+01 1.317e+01 *D DFFRNQ_X1 
in\[286\] I *L 0.000e+00 *S 1.425e+01 1.282e+01 *D DFFRNQ_X1 
in\[285\] I *L 0.000e+00 *S 1.393e+01 1.251e+01 *D DFFRNQ_X1 
in\[284\] I *L 0.000e+00 *S 1.408e+01 1.266e+01 *D DFFRNQ_X1 
in\[283\] I *L 0.000e+00 *S 1.215e+01 1.080e+01 *D DFFRNQ_X1 
in\[282\] I *L 0.000e+00 *S 1.403e+01 1.261e+01 *D DFFRNQ_X1 
in\[281\] I *L 0.000e+00 *S 1.265e+01 1.128e+01 *D DFFRNQ_X1 
in\[280\] I *L 0.000e+00 *S 1.325e+01 1.185e+01 *D DFFRNQ_X1 
in\[279\] I *L 0.000e+00 *S 1.243e+01 1.107e+01 *D DFFRNQ_X1 
in\[278\] I *L 0.000e+00 *S 1.265e+01 1.127e+01 *D DFFRNQ_X1 
in\[277\] I *L 0.000e+00 *S 1.253e+01 1.116e+01 *D DFFRNQ_X1 
in\[276\] I *L 0.000e+00 *S 1.326e+01 1.186e+01 *D DFFRNQ_X1 
in\[275\] I *L 0.000e+00 *S 1.208e+01 1.073e+01 *D DFFRNQ_X1 
in\[274\] I *L 0.000e+00 *S 1.199e+01 1.064e+01 *D DFFRNQ_X1 
in\[273\] I *L 0.000e+00 *S 1.228e+01 1.092e+01 *D DFFRNQ_X1 
in\[272\] I *L 0.000e+00 *S 1.208e+01 1.073e+01 *D DFFRNQ_X1 
in\[271\] I *L 0.000e+00 *S 1.176e+01 1.042e+01 *D DFFRNQ_X1 
in\[270\] I *L 0.000e+00 *S 1.188e+01 1.054e+01 *D DFFRNQ_X1 
in\[269\] I *L 0.000e+00 *S 1.178e+01 1.044e+01 *D DFFRNQ_X1 
in\[268\] I *L 0.000e+00 *S 1.278e+01 1.140e+01 *D DFFRNQ_X1 
in\[267\] I *L 0.000e+00 *S 1.294e+01 1.156e+01 *D DFFRNQ_X1 
in\[266\] I *L 0.000e+00 *S 1.400e+01 1.258e+01 *D DFFRNQ_X1 
in\[265\] I *L 0.000e+00 *S 1.233e+01 1.097e+01 *D DFFRNQ_X1 
in\[264\] I *L 0.000e+00 *S 1.184e+01 1.050e+01 *D DFFRNQ_X1 
in\[263\] I *L 0.000e+00 *S 1.355e+01 1.215e+01 *D DFFRNQ_X1 
in\[262\] I *L 0.000e+00 *S 1.432e+01 1.288e+01 *D DFFRNQ_X1 
in\[261\] I *L 0.000e+00 *S 1.226e+01 1.090e+01 *D DFFRNQ_X1 
in\[260\] I *L 0.000e+00 *S 1.405e+01 1.263e+01 *D DFFRNQ_X1 
in\[259\] I *L 0.000e+00 *S 1.227e+01 1.092e+01 *D DFFRNQ_X1 
in\[258\] I *L 0.000e+00 *S 1.313e+01 1.174e+01 *D DFFRNQ_X1 
in\[257\] I *L 0.000e+00 *S 1.380e+01 1.239e+01 *D DFFRNQ_X1 
in\[256\] I *L 0.000e+00 *S 1.227e+01 1.092e+01 *D DFFRNQ_X1 
in\[255\] I *L 0.000e+00 *S 1.486e+01 1.341e+01 *D DFFRNQ_X1 
in\[254\] I *L 0.000e+00 *S 1.453e+01 1.309e+01 *D DFFRNQ_X1 
in\[253\] I *L 0.000e+00 *S 1.413e+01 1.271e+01 *D DFFRNQ_X1 
in\[252\] I *L 0.000e+00 *S 1.417e+01 1.275e+01 *D DFFRNQ_X1 
in\[251\] I *L 0.000e+00 *S 1.216e+01 1.081e+01 *D DFFRNQ_X1 
in\[250\] I *L 0.000e+00 *S 1.450e+01 1.305e+01 *D DFFRNQ_X1 
in\[249\] I *L 0.000e+00 *S 1.354e+01 1.213e+01 *D DFFRNQ_X1 
in\[248\] I *L 0.000e+00 *S 1.344e+01 1.204e+01 *D DFFRNQ_X1 
in\[247\] I *L 0.000e+00 *S 1.248e+01 1.112e+01 *D DFFRNQ_X1 
in\[246\] I *L 0.000e+00 *S 1.333e+01 1.193e+01 *D DFFRNQ_X1 
in\[245\] I *L 0.000e+00 *S 1.263e+01 1.126e+01 *D DFFRNQ_X1 
in\[244\] I *L 0.000e+00 *S 1.381e+01 1.240e+01 *D DFFRNQ_X1 
in\[243\] I *L 0.000e+00 *S 1.247e+01 1.110e+01 *D DFFRNQ_X1 
in\[242\] I *L 0.000e+00 *S 1.217e+01 1.081e+01 *D DFFRNQ_X1 
in\[241\] I *L 0.000e+00 *S 1.251e+01 1.115e+01 *D DFFRNQ_X1 
in\[240\] I *L 0.000e+00 *S 1.219e+01 1.083e+01 *D DFFRNQ_X1 
in\[239\] I *L 0.000e+00 *S 1.186e+01 1.052e+01 *D DFFRNQ_X1 
in\[238\] I *L 0.000e+00 *S 1.211e+01 1.076e+01 *D DFFRNQ_X1 
in\[237\] I *L 0.000e+00 *S 1.177e+01 1.043e+01 *D DFFRNQ_X1 
in\[236\] I *L 0.000e+00 *S 1.343e+01 1.203e+01 *D DFFRNQ_X1 
in\[235\] I *L 0.000e+00 *S 1.309e+01 1.170e+01 *D DFFRNQ_X1 
in\[234\] I *L 0.000e+00 *S 1.458e+01 1.313e+01 *D DFFRNQ_X1 
in\[233\] I *L 0.000e+00 *S 1.240e+01 1.104e+01 *D DFFRNQ_X1 
in\[232\] I *L 0.000e+00 *S 1.199e+01 1.064e+01 *D DFFRNQ_X1 
in\[231\] I *L 0.000e+00 *S 1.399e+01 1.257e+01 *D DFFRNQ_X1 
in\[230\] I *L 0.000e+00 *S 1.436e+01 1.292e+01 *D DFFRNQ_X1 
in\[229\] I *L 0.000e+00 *S 1.205e+01 1.070e+01 *D DFFRNQ_X1 
in\[228\] I *L 0.000e+00 *S 1.412e+01 1.269e+01 *D DFFRNQ_X1 
in\[227\] I *L 0.000e+00 *S 1.207e+01 1.072e+01 *D DFFRNQ_X1 
in\[226\] I *L 0.000e+00 *S 1.327e+01 1.187e+01 *D DFFRNQ_X1 
in\[225\] I *L 0.000e+00 *S 1.383e+01 1.241e+01 *D DFFRNQ_X1 
in\[224\] I *L 0.000e+00 *S 1.221e+01 1.085e+01 *D DFFRNQ_X1 
in\[223\] I *L 0.000e+00 *S 1.459e+01 1.315e+01 *D DFFRNQ_X1 
in\[222\] I *L 0.000e+00 *S 1.444e+01 1.300e+01 *D DFFRNQ_X1 
in\[221\] I *L 0.000e+00 *S 1.375e+01 1.233e+01 *D DFFRNQ_X1 
in\[220\] I *L 0.000e+00 *S 1.384e+01 1.243e+01 *D DFFRNQ_X1 
in\[219\] I *L 0.000e+00 *S 1.180e+01 1.047e+01 *D DFFRNQ_X1 
in\[218\] I *L 0.000e+00 *S 1.390e+01 1.248e+01 *D DFFRNQ_X1 
in\[217\] I *L 0.000e+00 *S 1.282e+01 1.144e+01 *D DFFRNQ_X1 
in\[216\] I *L 0.000e+00 *S 1.333e+01 1.194e+01 *D DFFRNQ_X1 
in\[215\] I *L 0.000e+00 *S 1.231e+01 1.095e+01 *D DFFRNQ_X1 
in\[214\] I *L 0.000e+00 *S 1.309e+01 1.171e+01 *D DFFRNQ_X1 
in\[213\] I *L 0.000e+00 *S 1.227e+01 1.091e+01 *D DFFRNQ_X1 
in\[212\] I *L 0.000e+00 *S 1.357e+01 1.216e+01 *D DFFRNQ_X1 
in\[211\] I *L 0.000e+00 *S 1.209e+01 1.074e+01 *D DFFRNQ_X1 
in\[210\] I *L 0.000e+00 *S 1.174e+01 1.040e+01 *D DFFRNQ_X1 
in\[209\] I *L 0.000e+00 *S 1.218e+01 1.082e+01 *D DFFRNQ_X1 
in\[208\] I *L 0.000e+00 *S 1.172e+01 1.039e+01 *D DFFRNQ_X1 
in\[207\] I *L 0.000e+00 *S 1.172e+01 1.039e+01 *D DFFRNQ_X1 
in\[206\] I *L 0.000e+00 *S 1.183e+01 1.049e+01 *D DFFRNQ_X1 
in\[205\] I *L 0.000e+00 *S 1.141e+01 1.009e+01 *D DFFRNQ_X1 
in\[204\] I *L 0.000e+00 *S 1.328e+01 1.188e+01 *D DFFRNQ_X1 
in\[203\] I *L 0.000e+00 *S 1.280e+01 1.142e+01 *D DFFRNQ_X1 
in\[202\] I *L 0.000e+00 *S 1.421e+01 1.278e+01 *D DFFRNQ_X1 
in\[201\] I *L 0.000e+00 *S 1.253e+01 1.116e+01 *D DFFRNQ_X1 
in\[200\] I *L 0.000e+00 *S 1.189e+01 1.054e+01 *D DFFRNQ_X1 
in\[199\] I *L 0.000e+00 *S 1.396e+01 1.254e+01 *D DFFRNQ_X1 
in\[198\] I *L 0.000e+00 *S 1.436e+01 1.292e+01 *D DFFRNQ_X1 
in\[197\] I *L 0.000e+00 *S 1.232e+01 1.096e+01 *D DFFRNQ_X1 
in\[196\] I *L 0.000e+00 *S 1.426e+01 1.283e+01 *D DFFRNQ_X1 
in\[195\] I *L 0.000e+00 *S 1.233e+01 1.097e+01 *D DFFRNQ_X1 
in\[194\] I *L 0.000e+00 *S 1.297e+01 1.158e+01 *D DFFRNQ_X1 
in\[193\] I *L 0.000e+00 *S 1.397e+01 1.254e+01 *D DFFRNQ_X1 
in\[192\] I *L 0.000e+00 *S 1.234e+01 1.098e+01 *D DFFRNQ_X1 
in\[191\] I *L 0.000e+00 *S 2.434e+00 2.006e+00 *D DFFRNQ_X1 
in\[190\] I *L 0.000e+00 *S 1.324e+00 1.088e+00 *D DFFRNQ_X1 
in\[189\] I *L 0.000e+00 *S 2.664e+00 2.186e+00 *D DFFRNQ_X1 
in\[188\] I *L 0.000e+00 *S 2.154e+00 1.786e+00 *D DFFRNQ_X1 
in\[187\] I *L 0.000e+00 *S 1.326e+00 1.090e+00 *D DFFRNQ_X1 
in\[186\] I *L 0.000e+00 *S 2.782e+00 2.278e+00 *D DFFRNQ_X1 
in\[185\] I *L 0.000e+00 *S 1.341e+00 1.102e+00 *D DFFRNQ_X1 
in\[184\] I *L 0.000e+00 *S 1.342e+00 1.103e+00 *D DFFRNQ_X1 
in\[183\] I *L 0.000e+00 *S 1.320e+00 1.085e+00 *D DFFRNQ_X1 
in\[182\] I *L 0.000e+00 *S 1.327e+00 1.091e+00 *D DFFRNQ_X1 
in\[181\] I *L 0.000e+00 *S 1.330e+00 1.093e+00 *D DFFRNQ_X1 
in\[180\] I *L 0.000e+00 *S 1.348e+00 1.109e+00 *D DFFRNQ_X1 
in\[179\] I *L 0.000e+00 *S 1.787e+00 1.488e+00 *D DFFRNQ_X1 
in\[178\] I *L 0.000e+00 *S 2.612e+00 2.145e+00 *D DFFRNQ_X1 
in\[177\] I *L 0.000e+00 *S 1.624e+00 1.347e+00 *D DFFRNQ_X1 
in\[176\] I *L 0.000e+00 *S 1.884e+00 1.572e+00 *D DFFRNQ_X1 
in\[175\] I *L 0.000e+00 *S 1.760e+00 1.466e+00 *D DFFRNQ_X1 
in\[174\] I *L 0.000e+00 *S 1.848e+00 1.542e+00 *D DFFRNQ_X1 
in\[173\] I *L 0.000e+00 *S 1.736e+00 1.444e+00 *D DFFRNQ_X1 
in\[172\] I *L 0.000e+00 *S 3.659e+00 3.008e+00 *D DFFRNQ_X1 
in\[171\] I *L 0.000e+00 *S 3.723e+00 3.068e+00 *D DFFRNQ_X1 
in\[170\] I *L 0.000e+00 *S 4.110e+00 3.435e+00 *D DFFRNQ_X1 
in\[169\] I *L 0.000e+00 *S 2.775e+00 2.272e+00 *D DFFRNQ_X1 
in\[168\] I *L 0.000e+00 *S 2.208e+00 1.829e+00 *D DFFRNQ_X1 
in\[167\] I *L 0.000e+00 *S 2.420e+00 1.995e+00 *D DFFRNQ_X1 
in\[166\] I *L 0.000e+00 *S 2.470e+00 2.034e+00 *D DFFRNQ_X1 
in\[165\] I *L 0.000e+00 *S 2.857e+00 2.337e+00 *D DFFRNQ_X1 
in\[164\] I *L 0.000e+00 *S 2.847e+00 2.329e+00 *D DFFRNQ_X1 
in\[163\] I *L 0.000e+00 *S 2.941e+00 2.402e+00 *D DFFRNQ_X1 
in\[162\] I *L 0.000e+00 *S 1.324e+00 1.088e+00 *D DFFRNQ_X1 
in\[161\] I *L 0.000e+00 *S 2.348e+00 1.938e+00 *D DFFRNQ_X1 
in\[160\] I *L 0.000e+00 *S 3.060e+00 2.496e+00 *D DFFRNQ_X1 
in\[159\] I *L 0.000e+00 *S 1.448e+01 1.304e+01 *D DFFRNQ_X1 
in\[158\] I *L 0.000e+00 *S 1.411e+01 1.268e+01 *D DFFRNQ_X1 
in\[157\] I *L 0.000e+00 *S 1.379e+01 1.238e+01 *D DFFRNQ_X1 
in\[156\] I *L 0.000e+00 *S 1.396e+01 1.253e+01 *D DFFRNQ_X1 
in\[155\] I *L 0.000e+00 *S 1.201e+01 1.066e+01 *D DFFRNQ_X1 
in\[154\] I *L 0.000e+00 *S 1.389e+01 1.247e+01 *D DFFRNQ_X1 
in\[153\] I *L 0.000e+00 *S 1.251e+01 1.115e+01 *D DFFRNQ_X1 
in\[152\] I *L 0.000e+00 *S 1.311e+01 1.172e+01 *D DFFRNQ_X1 
in\[151\] I *L 0.000e+00 *S 1.229e+01 1.093e+01 *D DFFRNQ_X1 
in\[150\] I *L 0.000e+00 *S 1.251e+01 1.114e+01 *D DFFRNQ_X1 
in\[149\] I *L 0.000e+00 *S 1.236e+01 1.100e+01 *D DFFRNQ_X1 
in\[148\] I *L 0.000e+00 *S 1.314e+01 1.175e+01 *D DFFRNQ_X1 
in\[147\] I *L 0.000e+00 *S 1.196e+01 1.061e+01 *D DFFRNQ_X1 
in\[146\] I *L 0.000e+00 *S 1.186e+01 1.052e+01 *D DFFRNQ_X1 
in\[145\] I *L 0.000e+00 *S 1.215e+01 1.080e+01 *D DFFRNQ_X1 
in\[144\] I *L 0.000e+00 *S 1.195e+01 1.061e+01 *D DFFRNQ_X1 
in\[143\] I *L 0.000e+00 *S 1.164e+01 1.030e+01 *D DFFRNQ_X1 
in\[142\] I *L 0.000e+00 *S 1.176e+01 1.042e+01 *D DFFRNQ_X1 
in\[141\] I *L 0.000e+00 *S 1.166e+01 1.032e+01 *D DFFRNQ_X1 
in\[140\] I *L 0.000e+00 *S 1.266e+01 1.129e+01 *D DFFRNQ_X1 
in\[139\] I *L 0.000e+00 *S 1.282e+01 1.144e+01 *D DFFRNQ_X1 
in\[138\] I *L 0.000e+00 *S 1.388e+01 1.246e+01 *D DFFRNQ_X1 
in\[137\] I *L 0.000e+00 *S 1.220e+01 1.085e+01 *D DFFRNQ_X1 
in\[136\] I *L 0.000e+00 *S 1.172e+01 1.039e+01 *D DFFRNQ_X1 
in\[135\] I *L 0.000e+00 *S 1.339e+01 1.199e+01 *D DFFRNQ_X1 
in\[134\] I *L 0.000e+00 *S 1.416e+01 1.273e+01 *D DFFRNQ_X1 
in\[133\] I *L 0.000e+00 *S 1.209e+01 1.074e+01 *D DFFRNQ_X1 
in\[132\] I *L 0.000e+00 *S 1.389e+01 1.247e+01 *D DFFRNQ_X1 
in\[131\] I *L 0.000e+00 *S 1.211e+01 1.076e+01 *D DFFRNQ_X1 
in\[130\] I *L 0.000e+00 *S 1.296e+01 1.158e+01 *D DFFRNQ_X1 
in\[129\] I *L 0.000e+00 *S 1.364e+01 1.223e+01 *D DFFRNQ_X1 
in\[128\] I *L 0.000e+00 *S 1.211e+01 1.076e+01 *D DFFRNQ_X1 
in\[127\] I *L 0.000e+00 *S 2.393e+00 1.974e+00 *D DFFRNQ_X1 
in\[126\] I *L 0.000e+00 *S 1.423e+00 1.174e+00 *D DFFRNQ_X1 
in\[125\] I *L 0.000e+00 *S 2.615e+00 2.147e+00 *D DFFRNQ_X1 
in\[124\] I *L 0.000e+00 *S 2.122e+00 1.762e+00 *D DFFRNQ_X1 
in\[123\] I *L 0.000e+00 *S 1.319e+00 1.083e+00 *D DFFRNQ_X1 
in\[122\] I *L 0.000e+00 *S 2.903e+00 2.373e+00 *D DFFRNQ_X1 
in\[121\] I *L 0.000e+00 *S 1.518e+00 1.256e+00 *D DFFRNQ_X1 
in\[120\] I *L 0.000e+00 *S 1.486e+00 1.228e+00 *D DFFRNQ_X1 
in\[119\] I *L 0.000e+00 *S 1.323e+00 1.087e+00 *D DFFRNQ_X1 
in\[118\] I *L 0.000e+00 *S 1.343e+00 1.105e+00 *D DFFRNQ_X1 
in\[117\] I *L 0.000e+00 *S 1.652e+00 1.372e+00 *D DFFRNQ_X1 
in\[116\] I *L 0.000e+00 *S 1.486e+00 1.228e+00 *D DFFRNQ_X1 
in\[115\] I *L 0.000e+00 *S 1.768e+00 1.472e+00 *D DFFRNQ_X1 
in\[114\] I *L 0.000e+00 *S 2.629e+00 2.159e+00 *D DFFRNQ_X1 
in\[113\] I *L 0.000e+00 *S 1.770e+00 1.474e+00 *D DFFRNQ_X1 
in\[112\] I *L 0.000e+00 *S 1.631e+00 1.353e+00 *D DFFRNQ_X1 
in\[111\] I *L 0.000e+00 *S 1.597e+00 1.324e+00 *D DFFRNQ_X1 
in\[110\] I *L 0.000e+00 *S 1.601e+00 1.328e+00 *D DFFRNQ_X1 
in\[109\] I *L 0.000e+00 *S 1.646e+00 1.366e+00 *D DFFRNQ_X1 
in\[108\] I *L 0.000e+00 *S 3.742e+00 3.086e+00 *D DFFRNQ_X1 
in\[107\] I *L 0.000e+00 *S 3.594e+00 2.946e+00 *D DFFRNQ_X1 
in\[106\] I *L 0.000e+00 *S 3.888e+00 3.224e+00 *D DFFRNQ_X1 
in\[105\] I *L 0.000e+00 *S 2.655e+00 2.178e+00 *D DFFRNQ_X1 
in\[104\] I *L 0.000e+00 *S 1.925e+00 1.608e+00 *D DFFRNQ_X1 
in\[103\] I *L 0.000e+00 *S 2.616e+00 2.148e+00 *D DFFRNQ_X1 
in\[102\] I *L 0.000e+00 *S 3.107e+00 2.532e+00 *D DFFRNQ_X1 
in\[101\] I *L 0.000e+00 *S 3.315e+00 2.695e+00 *D DFFRNQ_X1 
in\[100\] I *L 0.000e+00 *S 3.143e+00 2.561e+00 *D DFFRNQ_X1 
in\[99\] I *L 0.000e+00 *S 3.220e+00 2.620e+00 *D DFFRNQ_X1 
in\[98\] I *L 0.000e+00 *S 1.373e+00 1.131e+00 *D DFFRNQ_X1 
in\[97\] I *L 0.000e+00 *S 2.267e+00 1.875e+00 *D DFFRNQ_X1 
in\[96\] I *L 0.000e+00 *S 3.379e+00 2.745e+00 *D DFFRNQ_X1 
in\[95\] I *L 0.000e+00 *S 1.449e+01 1.305e+01 *D DFFRNQ_X1 
in\[94\] I *L 0.000e+00 *S 1.391e+01 1.249e+01 *D DFFRNQ_X1 
in\[93\] I *L 0.000e+00 *S 1.331e+01 1.191e+01 *D DFFRNQ_X1 
in\[92\] I *L 0.000e+00 *S 1.350e+01 1.209e+01 *D DFFRNQ_X1 
in\[91\] I *L 0.000e+00 *S 1.157e+01 1.024e+01 *D DFFRNQ_X1 
in\[90\] I *L 0.000e+00 *S 1.376e+01 1.235e+01 *D DFFRNQ_X1 
in\[89\] I *L 0.000e+00 *S 1.249e+01 1.113e+01 *D DFFRNQ_X1 
in\[88\] I *L 0.000e+00 *S 1.293e+01 1.155e+01 *D DFFRNQ_X1 
in\[87\] I *L 0.000e+00 *S 1.190e+01 1.055e+01 *D DFFRNQ_X1 
in\[86\] I *L 0.000e+00 *S 1.239e+01 1.103e+01 *D DFFRNQ_X1 
in\[85\] I *L 0.000e+00 *S 1.205e+01 1.070e+01 *D DFFRNQ_X1 
in\[84\] I *L 0.000e+00 *S 1.282e+01 1.144e+01 *D DFFRNQ_X1 
in\[83\] I *L 0.000e+00 *S 1.191e+01 1.056e+01 *D DFFRNQ_X1 
in\[82\] I *L 0.000e+00 *S 1.153e+01 1.020e+01 *D DFFRNQ_X1 
in\[81\] I *L 0.000e+00 *S 1.184e+01 1.050e+01 *D DFFRNQ_X1 
in\[80\] I *L 0.000e+00 *S 1.160e+01 1.027e+01 *D DFFRNQ_X1 
in\[79\] I *L 0.000e+00 *S 1.128e+01 9.957e+00 *D DFFRNQ_X1 
in\[78\] I *L 0.000e+00 *S 1.156e+01 1.023e+01 *D DFFRNQ_X1 
in\[77\] I *L 0.000e+00 *S 1.135e+01 1.003e+01 *D DFFRNQ_X1 
in\[76\] I *L 0.000e+00 *S 1.276e+01 1.139e+01 *D DFFRNQ_X1 
in\[75\] I *L 0.000e+00 *S 1.241e+01 1.105e+01 *D DFFRNQ_X1 
in\[74\] I *L 0.000e+00 *S 1.391e+01 1.249e+01 *D DFFRNQ_X1 
in\[73\] I *L 0.000e+00 *S 1.188e+01 1.054e+01 *D DFFRNQ_X1 
in\[72\] I *L 0.000e+00 *S 1.153e+01 1.020e+01 *D DFFRNQ_X1 
in\[71\] I *L 0.000e+00 *S 1.344e+01 1.204e+01 *D DFFRNQ_X1 
in\[70\] I *L 0.000e+00 *S 1.366e+01 1.225e+01 *D DFFRNQ_X1 
in\[69\] I *L 0.000e+00 *S 1.160e+01 1.027e+01 *D DFFRNQ_X1 
in\[68\] I *L 0.000e+00 *S 1.366e+01 1.225e+01 *D DFFRNQ_X1 
in\[67\] I *L 0.000e+00 *S 1.152e+01 1.019e+01 *D DFFRNQ_X1 
in\[66\] I *L 0.000e+00 *S 1.269e+01 1.132e+01 *D DFFRNQ_X1 
in\[65\] I *L 0.000e+00 *S 1.329e+01 1.189e+01 *D DFFRNQ_X1 
in\[64\] I *L 0.000e+00 *S 1.169e+01 1.036e+01 *D DFFRNQ_X1 
in\[63\] I *L 0.000e+00 *S 5.310e+00 4.573e+00 *D DFFRNQ_X1 
in\[62\] I *L 0.000e+00 *S 8.164e+00 7.123e+00 *D DFFRNQ_X1 
in\[61\] I *L 0.000e+00 *S 5.290e+00 4.553e+00 *D DFFRNQ_X1 
in\[60\] I *L 0.000e+00 *S 5.830e+00 5.060e+00 *D DFFRNQ_X1 
in\[59\] I *L 0.000e+00 *S 8.210e+00 7.164e+00 *D DFFRNQ_X1 
in\[58\] I *L 0.000e+00 *S 4.926e+00 4.208e+00 *D DFFRNQ_X1 
in\[57\] I *L 0.000e+00 *S 6.971e+00 6.068e+00 *D DFFRNQ_X1 
in\[56\] I *L 0.000e+00 *S 7.672e+00 6.689e+00 *D DFFRNQ_X1 
in\[55\] I *L 0.000e+00 *S 7.575e+00 6.603e+00 *D DFFRNQ_X1 
in\[54\] I *L 0.000e+00 *S 7.668e+00 6.685e+00 *D DFFRNQ_X1 
in\[53\] I *L 0.000e+00 *S 7.304e+00 6.363e+00 *D DFFRNQ_X1 
in\[52\] I *L 0.000e+00 *S 7.536e+00 6.568e+00 *D DFFRNQ_X1 
in\[51\] I *L 0.000e+00 *S 6.359e+00 5.528e+00 *D DFFRNQ_X1 
in\[50\] I *L 0.000e+00 *S 6.769e+00 5.890e+00 *D DFFRNQ_X1 
in\[49\] I *L 0.000e+00 *S 6.485e+00 5.639e+00 *D DFFRNQ_X1 
in\[48\] I *L 0.000e+00 *S 6.484e+00 5.638e+00 *D DFFRNQ_X1 
in\[47\] I *L 0.000e+00 *S 5.953e+00 5.168e+00 *D DFFRNQ_X1 
in\[46\] I *L 0.000e+00 *S 5.004e+00 4.283e+00 *D DFFRNQ_X1 
in\[45\] I *L 0.000e+00 *S 6.213e+00 5.399e+00 *D DFFRNQ_X1 
in\[44\] I *L 0.000e+00 *S 5.955e+00 5.171e+00 *D DFFRNQ_X1 
in\[43\] I *L 0.000e+00 *S 7.340e+00 6.395e+00 *D DFFRNQ_X1 
in\[42\] I *L 0.000e+00 *S 6.165e+00 5.356e+00 *D DFFRNQ_X1 
in\[41\] I *L 0.000e+00 *S 4.804e+00 4.093e+00 *D DFFRNQ_X1 
in\[40\] I *L 0.000e+00 *S 4.623e+00 3.921e+00 *D DFFRNQ_X1 
in\[39\] I *L 0.000e+00 *S 6.030e+00 5.236e+00 *D DFFRNQ_X1 
in\[38\] I *L 0.000e+00 *S 6.593e+00 5.735e+00 *D DFFRNQ_X1 
in\[37\] I *L 0.000e+00 *S 4.806e+00 4.095e+00 *D DFFRNQ_X1 
in\[36\] I *L 0.000e+00 *S 6.257e+00 5.437e+00 *D DFFRNQ_X1 
in\[35\] I *L 0.000e+00 *S 4.311e+00 3.626e+00 *D DFFRNQ_X1 
in\[34\] I *L 0.000e+00 *S 6.786e+00 5.905e+00 *D DFFRNQ_X1 
in\[33\] I *L 0.000e+00 *S 6.856e+00 5.967e+00 *D DFFRNQ_X1 
in\[32\] I *L 0.000e+00 *S 4.318e+00 3.632e+00 *D DFFRNQ_X1 
in\[31\] I *L 0.000e+00 *S 2.446e+00 2.015e+00 *D DFFRNQ_X1 
in\[30\] I *L 0.000e+00 *S 1.669e+00 1.387e+00 *D DFFRNQ_X1 
in\[29\] I *L 0.000e+00 *S 2.647e+00 2.173e+00 *D DFFRNQ_X1 
in\[28\] I *L 0.000e+00 *S 2.277e+00 1.883e+00 *D DFFRNQ_X1 
in\[27\] I *L 0.000e+00 *S 1.630e+00 1.353e+00 *D DFFRNQ_X1 
in\[26\] I *L 0.000e+00 *S 3.405e+00 2.766e+00 *D DFFRNQ_X1 
in\[25\] I *L 0.000e+00 *S 1.604e+00 1.330e+00 *D DFFRNQ_X1 
in\[24\] I *L 0.000e+00 *S 1.651e+00 1.371e+00 *D DFFRNQ_X1 
in\[23\] I *L 0.000e+00 *S 1.732e+00 1.441e+00 *D DFFRNQ_X1 
in\[22\] I *L 0.000e+00 *S 1.667e+00 1.385e+00 *D DFFRNQ_X1 
in\[21\] I *L 0.000e+00 *S 1.831e+00 1.527e+00 *D DFFRNQ_X1 
in\[20\] I *L 0.000e+00 *S 1.632e+00 1.354e+00 *D DFFRNQ_X1 
in\[19\] I *L 0.000e+00 *S 2.153e+00 1.786e+00 *D DFFRNQ_X1 
in\[18\] I *L 0.000e+00 *S 2.699e+00 2.213e+00 *D DFFRNQ_X1 
in\[17\] I *L 0.000e+00 *S 1.890e+00 1.578e+00 *D DFFRNQ_X1 
in\[16\] I *L 0.000e+00 *S 1.883e+00 1.572e+00 *D DFFRNQ_X1 
in\[15\] I *L 0.000e+00 *S 1.939e+00 1.618e+00 *D DFFRNQ_X1 
in\[14\] I *L 0.000e+00 *S 1.894e+00 1.582e+00 *D DFFRNQ_X1 
in\[13\] I *L 0.000e+00 *S 1.850e+00 1.543e+00 *D DFFRNQ_X1 
in\[12\] I *L 0.000e+00 *S 3.461e+00 2.820e+00 *D DFFRNQ_X1 
in\[11\] I *L 0.000e+00 *S 3.760e+00 3.103e+00 *D DFFRNQ_X1 
in\[10\] I *L 0.000e+00 *S 4.022e+00 3.351e+00 *D DFFRNQ_X1 
in\[9\] I *L 0.000e+00 *S 2.598e+00 2.134e+00 *D DFFRNQ_X1 
in\[8\] I *L 0.000e+00 *S 2.177e+00 1.805e+00 *D DFFRNQ_X1 
in\[7\] I *L 0.000e+00 *S 2.713e+00 2.224e+00 *D DFFRNQ_X1 
in\[6\] I *L 0.000e+00 *S 2.889e+00 2.362e+00 *D DFFRNQ_X1 
in\[5\] I *L 0.000e+00 *S 3.551e+00 2.905e+00 *D DFFRNQ_X1 
in\[4\] I *L 0.000e+00 *S 3.467e+00 2.825e+00 *D DFFRNQ_X1 
in\[3\] I *L 0.000e+00 *S 3.401e+00 2.763e+00 *D DFFRNQ_X1 
in\[2\] I *L 0.000e+00 *S 1.771e+00 1.475e+00 *D DFFRNQ_X1 
in\[1\] I *L 0.000e+00 *S 2.448e+00 2.017e+00 *D DFFRNQ_X1 
in\[0\] I *L 0.000e+00 *S 3.525e+00 2.880e+00 *D DFFRNQ_X1 
req\[143\] I *L 0.000e+00 *S 3.679e+00 3.027e+00 *D DFFRNQ_X1 
req\[142\] I *L 0.000e+00 *S 3.528e+00 2.884e+00 *D DFFRNQ_X1 
req\[141\] I *L 0.000e+00 *S 3.483e+00 2.840e+00 *D DFFRNQ_X1 
req\[140\] I *L 0.000e+00 *S 3.498e+00 2.855e+00 *D DFFRNQ_X1 
req\[139\] I *L 0.000e+00 *S 3.593e+00 2.945e+00 *D DFFRNQ_X1 
req\[138\] I *L 0.000e+00 *S 3.511e+00 2.867e+00 *D DFFRNQ_X1 
req\[137\] I *L 0.000e+00 *S 3.719e+00 3.065e+00 *D DFFRNQ_X1 
req\[136\] I *L 0.000e+00 *S 3.492e+00 2.850e+00 *D DFFRNQ_X1 
req\[135\] I *L 0.000e+00 *S 4.003e+00 3.334e+00 *D DFFRNQ_X1 
req\[134\] I *L 0.000e+00 *S 3.436e+00 2.796e+00 *D DFFRNQ_X1 
req\[133\] I *L 0.000e+00 *S 3.821e+00 3.161e+00 *D DFFRNQ_X1 
req\[132\] I *L 0.000e+00 *S 4.065e+00 3.392e+00 *D DFFRNQ_X1 
req\[131\] I *L 0.000e+00 *S 3.146e+00 2.563e+00 *D DFFRNQ_X1 
req\[130\] I *L 0.000e+00 *S 2.815e+00 2.304e+00 *D DFFRNQ_X1 
req\[129\] I *L 0.000e+00 *S 4.006e+00 3.337e+00 *D DFFRNQ_X1 
req\[128\] I *L 0.000e+00 *S 3.753e+00 3.097e+00 *D DFFRNQ_X1 
req\[127\] I *L 0.000e+00 *S 3.949e+00 3.282e+00 *D DFFRNQ_X1 
req\[126\] I *L 0.000e+00 *S 3.887e+00 3.223e+00 *D DFFRNQ_X1 
req\[125\] I *L 0.000e+00 *S 4.742e+00 4.035e+00 *D DFFRNQ_X1 
req\[124\] I *L 0.000e+00 *S 3.508e+00 2.864e+00 *D DFFRNQ_X1 
req\[123\] I *L 0.000e+00 *S 3.876e+00 3.213e+00 *D DFFRNQ_X1 
req\[122\] I *L 0.000e+00 *S 4.691e+00 3.986e+00 *D DFFRNQ_X1 
req\[121\] I *L 0.000e+00 *S 4.769e+00 4.060e+00 *D DFFRNQ_X1 
req\[120\] I *L 0.000e+00 *S 4.815e+00 4.103e+00 *D DFFRNQ_X1 
req\[119\] I *L 0.000e+00 *S 5.687e+00 4.930e+00 *D DFFRNQ_X1 
req\[118\] I *L 0.000e+00 *S 5.700e+00 4.942e+00 *D DFFRNQ_X1 
req\[117\] I *L 0.000e+00 *S 3.559e+00 2.913e+00 *D DFFRNQ_X1 
req\[116\] I *L 0.000e+00 *S 3.503e+00 2.860e+00 *D DFFRNQ_X1 
req\[115\] I *L 0.000e+00 *S 3.630e+00 2.980e+00 *D DFFRNQ_X1 
req\[114\] I *L 0.000e+00 *S 3.530e+00 2.885e+00 *D DFFRNQ_X1 
req\[113\] I *L 0.000e+00 *S 3.807e+00 3.148e+00 *D DFFRNQ_X1 
req\[112\] I *L 0.000e+00 *S 3.540e+00 2.895e+00 *D DFFRNQ_X1 
req\[111\] I *L 0.000e+00 *S 4.122e+00 3.446e+00 *D DFFRNQ_X1 
req\[110\] I *L 0.000e+00 *S 3.503e+00 2.860e+00 *D DFFRNQ_X1 
req\[109\] I *L 0.000e+00 *S 3.848e+00 3.186e+00 *D DFFRNQ_X1 
req\[108\] I *L 0.000e+00 *S 4.114e+00 3.439e+00 *D DFFRNQ_X1 
req\[107\] I *L 0.000e+00 *S 3.111e+00 2.536e+00 *D DFFRNQ_X1 
req\[106\] I *L 0.000e+00 *S 4.929e+00 4.212e+00 *D DFFRNQ_X1 
req\[105\] I *L 0.000e+00 *S 4.032e+00 3.361e+00 *D DFFRNQ_X1 
req\[104\] I *L 0.000e+00 *S 3.697e+00 3.044e+00 *D DFFRNQ_X1 
req\[103\] I *L 0.000e+00 *S 4.130e+00 3.454e+00 *D DFFRNQ_X1 
req\[102\] I *L 0.000e+00 *S 3.971e+00 3.303e+00 *D DFFRNQ_X1 
req\[101\] I *L 0.000e+00 *S 4.682e+00 3.977e+00 *D DFFRNQ_X1 
req\[100\] I *L 0.000e+00 *S 3.543e+00 2.898e+00 *D DFFRNQ_X1 
req\[99\] I *L 0.000e+00 *S 3.902e+00 3.238e+00 *D DFFRNQ_X1 
req\[98\] I *L 0.000e+00 *S 4.727e+00 4.020e+00 *D DFFRNQ_X1 
req\[97\] I *L 0.000e+00 *S 4.726e+00 4.019e+00 *D DFFRNQ_X1 
req\[96\] I *L 0.000e+00 *S 4.819e+00 4.107e+00 *D DFFRNQ_X1 
req\[95\] I *L 0.000e+00 *S 1.927e+00 1.610e+00 *D DFFRNQ_X1 
req\[94\] I *L 0.000e+00 *S 1.634e+00 1.356e+00 *D DFFRNQ_X1 
req\[93\] I *L 0.000e+00 *S 3.121e+00 2.543e+00 *D DFFRNQ_X1 
req\[92\] I *L 0.000e+00 *S 2.243e+00 1.856e+00 *D DFFRNQ_X1 
req\[91\] I *L 0.000e+00 *S 3.262e+00 2.654e+00 *D DFFRNQ_X1 
req\[90\] I *L 0.000e+00 *S 1.967e+00 1.640e+00 *D DFFRNQ_X1 
req\[89\] I *L 0.000e+00 *S 3.702e+00 3.048e+00 *D DFFRNQ_X1 
req\[88\] I *L 0.000e+00 *S 2.678e+00 2.197e+00 *D DFFRNQ_X1 
req\[87\] I *L 0.000e+00 *S 2.845e+00 2.327e+00 *D DFFRNQ_X1 
req\[86\] I *L 0.000e+00 *S 3.445e+00 2.804e+00 *D DFFRNQ_X1 
req\[85\] I *L 0.000e+00 *S 3.499e+00 2.856e+00 *D DFFRNQ_X1 
req\[84\] I *L 0.000e+00 *S 1.641e+00 1.363e+00 *D DFFRNQ_X1 
req\[83\] I *L 0.000e+00 *S 3.064e+00 2.499e+00 *D DFFRNQ_X1 
req\[82\] I *L 0.000e+00 *S 5.095e+00 4.369e+00 *D DFFRNQ_X1 
req\[81\] I *L 0.000e+00 *S 4.039e+00 3.367e+00 *D DFFRNQ_X1 
req\[80\] I *L 0.000e+00 *S 3.663e+00 3.011e+00 *D DFFRNQ_X1 
req\[79\] I *L 0.000e+00 *S 4.044e+00 3.373e+00 *D DFFRNQ_X1 
req\[78\] I *L 0.000e+00 *S 5.590e+00 4.838e+00 *D DFFRNQ_X1 
req\[77\] I *L 0.000e+00 *S 4.956e+00 4.237e+00 *D DFFRNQ_X1 
req\[76\] I *L 0.000e+00 *S 3.598e+00 2.950e+00 *D DFFRNQ_X1 
req\[75\] I *L 0.000e+00 *S 3.871e+00 3.208e+00 *D DFFRNQ_X1 
req\[74\] I *L 0.000e+00 *S 5.127e+00 4.399e+00 *D DFFRNQ_X1 
req\[73\] I *L 0.000e+00 *S 5.007e+00 4.286e+00 *D DFFRNQ_X1 
req\[72\] I *L 0.000e+00 *S 4.822e+00 4.110e+00 *D DFFRNQ_X1 
req\[71\] I *L 0.000e+00 *S 3.703e+00 3.049e+00 *D DFFRNQ_X1 
req\[70\] I *L 0.000e+00 *S 3.571e+00 2.924e+00 *D DFFRNQ_X1 
req\[69\] I *L 0.000e+00 *S 3.520e+00 2.875e+00 *D DFFRNQ_X1 
req\[68\] I *L 0.000e+00 *S 3.587e+00 2.939e+00 *D DFFRNQ_X1 
req\[67\] I *L 0.000e+00 *S 3.593e+00 2.945e+00 *D DFFRNQ_X1 
req\[66\] I *L 0.000e+00 *S 3.510e+00 2.866e+00 *D DFFRNQ_X1 
req\[65\] I *L 0.000e+00 *S 3.714e+00 3.060e+00 *D DFFRNQ_X1 
req\[64\] I *L 0.000e+00 *S 3.548e+00 2.903e+00 *D DFFRNQ_X1 
req\[63\] I *L 0.000e+00 *S 3.962e+00 3.294e+00 *D DFFRNQ_X1 
req\[62\] I *L 0.000e+00 *S 3.494e+00 2.851e+00 *D DFFRNQ_X1 
req\[61\] I *L 0.000e+00 *S 3.804e+00 3.145e+00 *D DFFRNQ_X1 
req\[60\] I *L 0.000e+00 *S 4.078e+00 3.405e+00 *D DFFRNQ_X1 
req\[59\] I *L 0.000e+00 *S 4.971e+00 4.251e+00 *D DFFRNQ_X1 
req\[58\] I *L 0.000e+00 *S 2.863e+00 2.342e+00 *D DFFRNQ_X1 
req\[57\] I *L 0.000e+00 *S 4.087e+00 3.413e+00 *D DFFRNQ_X1 
req\[56\] I *L 0.000e+00 *S 5.495e+00 4.748e+00 *D DFFRNQ_X1 
req\[55\] I *L 0.000e+00 *S 4.268e+00 3.584e+00 *D DFFRNQ_X1 
req\[54\] I *L 0.000e+00 *S 5.148e+00 4.419e+00 *D DFFRNQ_X1 
req\[53\] I *L 0.000e+00 *S 4.726e+00 4.019e+00 *D DFFRNQ_X1 
req\[52\] I *L 0.000e+00 *S 3.511e+00 2.867e+00 *D DFFRNQ_X1 
req\[51\] I *L 0.000e+00 *S 3.951e+00 3.284e+00 *D DFFRNQ_X1 
req\[50\] I *L 0.000e+00 *S 5.054e+00 4.330e+00 *D DFFRNQ_X1 