*SPEF "IEEE 1481-1999"
*DESIGN "xbar"
*DATE "Thu Sep 12 22:02:37 2019"
*VENDOR "SYNOPSYS INC"
*PROGRAM "Synopsys Design Compiler cmos"
*VERSION "P-2019.03-SP1"
*DESIGN_FLOW "SYNTHESIS"
*DIVIDER /
*DELIMITER :
*BUS_DELIMITER []
*T_UNIT 0.0010 NS
*C_UNIT 0.0010 PF
*R_UNIT 1.0 KOHM
*L_UNIT 1.0 HENRY

*PORTS

clk I *L 0.000e+00 *S 0.000e+00 0.000e+00 
reset I *L 0.000e+00 *S 4.903e+01 4.364e+01 *D DFFRNQ_X1 
in\[383\] I *L 0.000e+00 *S 2.290e+00 1.891e+00 *D DFFRNQ_X1 
in\[382\] I *L 0.000e+00 *S 1.312e+00 1.100e+00 *D DFFRNQ_X1 
in\[381\] I *L 0.000e+00 *S 2.486e+00 2.053e+00 *D DFFRNQ_X1 
in\[380\] I *L 0.000e+00 *S 2.052e+00 1.695e+00 *D DFFRNQ_X1 
in\[379\] I *L 0.000e+00 *S 1.309e+00 1.098e+00 *D DFFRNQ_X1 
in\[378\] I *L 0.000e+00 *S 2.585e+00 2.135e+00 *D DFFRNQ_X1 
in\[377\] I *L 0.000e+00 *S 1.332e+00 1.116e+00 *D DFFRNQ_X1 
in\[376\] I *L 0.000e+00 *S 1.341e+00 1.124e+00 *D DFFRNQ_X1 
in\[375\] I *L 0.000e+00 *S 1.312e+00 1.101e+00 *D DFFRNQ_X1 
in\[374\] I *L 0.000e+00 *S 1.307e+00 1.096e+00 *D DFFRNQ_X1 
in\[373\] I *L 0.000e+00 *S 1.309e+00 1.098e+00 *D DFFRNQ_X1 
in\[372\] I *L 0.000e+00 *S 1.322e+00 1.108e+00 *D DFFRNQ_X1 
in\[371\] I *L 0.000e+00 *S 1.721e+00 1.426e+00 *D DFFRNQ_X1 
in\[370\] I *L 0.000e+00 *S 2.405e+00 1.986e+00 *D DFFRNQ_X1 
in\[369\] I *L 0.000e+00 *S 1.576e+00 1.311e+00 *D DFFRNQ_X1 
in\[368\] I *L 0.000e+00 *S 1.805e+00 1.493e+00 *D DFFRNQ_X1 
in\[367\] I *L 0.000e+00 *S 1.589e+00 1.321e+00 *D DFFRNQ_X1 
in\[366\] I *L 0.000e+00 *S 1.730e+00 1.433e+00 *D DFFRNQ_X1 
in\[365\] I *L 0.000e+00 *S 1.573e+00 1.308e+00 *D DFFRNQ_X1 
in\[364\] I *L 0.000e+00 *S 3.376e+00 2.792e+00 *D DFFRNQ_X1 
in\[363\] I *L 0.000e+00 *S 3.339e+00 2.760e+00 *D DFFRNQ_X1 
in\[362\] I *L 0.000e+00 *S 3.755e+00 3.125e+00 *D DFFRNQ_X1 
in\[361\] I *L 0.000e+00 *S 2.602e+00 2.149e+00 *D DFFRNQ_X1 
in\[360\] I *L 0.000e+00 *S 2.034e+00 1.680e+00 *D DFFRNQ_X1 
in\[359\] I *L 0.000e+00 *S 2.252e+00 1.860e+00 *D DFFRNQ_X1 
in\[358\] I *L 0.000e+00 *S 2.366e+00 1.954e+00 *D DFFRNQ_X1 
in\[357\] I *L 0.000e+00 *S 2.623e+00 2.166e+00 *D DFFRNQ_X1 
in\[356\] I *L 0.000e+00 *S 2.631e+00 2.173e+00 *D DFFRNQ_X1 
in\[355\] I *L 0.000e+00 *S 2.702e+00 2.231e+00 *D DFFRNQ_X1 
in\[354\] I *L 0.000e+00 *S 1.308e+00 1.097e+00 *D DFFRNQ_X1 
in\[353\] I *L 0.000e+00 *S 2.223e+00 1.836e+00 *D DFFRNQ_X1 
in\[352\] I *L 0.000e+00 *S 2.822e+00 2.331e+00 *D DFFRNQ_X1 
in\[351\] I *L 0.000e+00 *S 1.472e+01 1.281e+01 *D DFFRNQ_X1 
in\[350\] I *L 0.000e+00 *S 1.458e+01 1.268e+01 *D DFFRNQ_X1 
in\[349\] I *L 0.000e+00 *S 1.394e+01 1.210e+01 *D DFFRNQ_X1 
in\[348\] I *L 0.000e+00 *S 1.403e+01 1.218e+01 *D DFFRNQ_X1 
in\[347\] I *L 0.000e+00 *S 1.215e+01 1.047e+01 *D DFFRNQ_X1 
in\[346\] I *L 0.000e+00 *S 1.408e+01 1.223e+01 *D DFFRNQ_X1 
in\[345\] I *L 0.000e+00 *S 1.307e+01 1.132e+01 *D DFFRNQ_X1 
in\[344\] I *L 0.000e+00 *S 1.353e+01 1.173e+01 *D DFFRNQ_X1 
in\[343\] I *L 0.000e+00 *S 1.260e+01 1.089e+01 *D DFFRNQ_X1 
in\[342\] I *L 0.000e+00 *S 1.333e+01 1.155e+01 *D DFFRNQ_X1 
in\[341\] I *L 0.000e+00 *S 1.257e+01 1.085e+01 *D DFFRNQ_X1 
in\[340\] I *L 0.000e+00 *S 1.378e+01 1.196e+01 *D DFFRNQ_X1 
in\[339\] I *L 0.000e+00 *S 1.238e+01 1.069e+01 *D DFFRNQ_X1 
in\[338\] I *L 0.000e+00 *S 1.206e+01 1.040e+01 *D DFFRNQ_X1 
in\[337\] I *L 0.000e+00 *S 1.247e+01 1.076e+01 *D DFFRNQ_X1 
in\[336\] I *L 0.000e+00 *S 1.205e+01 1.038e+01 *D DFFRNQ_X1 
in\[335\] I *L 0.000e+00 *S 1.205e+01 1.038e+01 *D DFFRNQ_X1 
in\[334\] I *L 0.000e+00 *S 1.214e+01 1.047e+01 *D DFFRNQ_X1 
in\[333\] I *L 0.000e+00 *S 1.176e+01 1.012e+01 *D DFFRNQ_X1 
in\[332\] I *L 0.000e+00 *S 1.349e+01 1.169e+01 *D DFFRNQ_X1 
in\[331\] I *L 0.000e+00 *S 1.305e+01 1.129e+01 *D DFFRNQ_X1 
in\[330\] I *L 0.000e+00 *S 1.435e+01 1.248e+01 *D DFFRNQ_X1 
in\[329\] I *L 0.000e+00 *S 1.280e+01 1.106e+01 *D DFFRNQ_X1 
in\[328\] I *L 0.000e+00 *S 1.220e+01 1.052e+01 *D DFFRNQ_X1 
in\[327\] I *L 0.000e+00 *S 1.416e+01 1.230e+01 *D DFFRNQ_X1 
in\[326\] I *L 0.000e+00 *S 1.453e+01 1.264e+01 *D DFFRNQ_X1 
in\[325\] I *L 0.000e+00 *S 1.264e+01 1.092e+01 *D DFFRNQ_X1 
in\[324\] I *L 0.000e+00 *S 1.444e+01 1.256e+01 *D DFFRNQ_X1 
in\[323\] I *L 0.000e+00 *S 1.264e+01 1.092e+01 *D DFFRNQ_X1 
in\[322\] I *L 0.000e+00 *S 1.324e+01 1.146e+01 *D DFFRNQ_X1 
in\[321\] I *L 0.000e+00 *S 1.417e+01 1.231e+01 *D DFFRNQ_X1 
in\[320\] I *L 0.000e+00 *S 1.265e+01 1.093e+01 *D DFFRNQ_X1 
in\[319\] I *L 0.000e+00 *S 2.236e+00 1.847e+00 *D DFFRNQ_X1 
in\[318\] I *L 0.000e+00 *S 1.444e+00 1.205e+00 *D DFFRNQ_X1 
in\[317\] I *L 0.000e+00 *S 2.499e+00 2.064e+00 *D DFFRNQ_X1 
in\[316\] I *L 0.000e+00 *S 2.013e+00 1.663e+00 *D DFFRNQ_X1 
in\[315\] I *L 0.000e+00 *S 1.373e+00 1.149e+00 *D DFFRNQ_X1 
in\[314\] I *L 0.000e+00 *S 2.746e+00 2.268e+00 *D DFFRNQ_X1 
in\[313\] I *L 0.000e+00 *S 1.467e+00 1.224e+00 *D DFFRNQ_X1 
in\[312\] I *L 0.000e+00 *S 1.464e+00 1.222e+00 *D DFFRNQ_X1 
in\[311\] I *L 0.000e+00 *S 1.314e+00 1.102e+00 *D DFFRNQ_X1 
in\[310\] I *L 0.000e+00 *S 1.311e+00 1.100e+00 *D DFFRNQ_X1 
in\[309\] I *L 0.000e+00 *S 1.440e+00 1.202e+00 *D DFFRNQ_X1 
in\[308\] I *L 0.000e+00 *S 1.448e+00 1.209e+00 *D DFFRNQ_X1 
in\[307\] I *L 0.000e+00 *S 2.056e+00 1.698e+00 *D DFFRNQ_X1 
in\[306\] I *L 0.000e+00 *S 2.454e+00 2.027e+00 *D DFFRNQ_X1 
in\[305\] I *L 0.000e+00 *S 1.821e+00 1.506e+00 *D DFFRNQ_X1 
in\[304\] I *L 0.000e+00 *S 1.787e+00 1.479e+00 *D DFFRNQ_X1 
in\[303\] I *L 0.000e+00 *S 1.742e+00 1.443e+00 *D DFFRNQ_X1 
in\[302\] I *L 0.000e+00 *S 1.830e+00 1.513e+00 *D DFFRNQ_X1 
in\[301\] I *L 0.000e+00 *S 1.810e+00 1.497e+00 *D DFFRNQ_X1 
in\[300\] I *L 0.000e+00 *S 3.223e+00 2.662e+00 *D DFFRNQ_X1 
in\[299\] I *L 0.000e+00 *S 3.313e+00 2.738e+00 *D DFFRNQ_X1 
in\[298\] I *L 0.000e+00 *S 3.585e+00 2.976e+00 *D DFFRNQ_X1 
in\[297\] I *L 0.000e+00 *S 2.557e+00 2.112e+00 *D DFFRNQ_X1 
in\[296\] I *L 0.000e+00 *S 1.996e+00 1.649e+00 *D DFFRNQ_X1 
in\[295\] I *L 0.000e+00 *S 2.380e+00 1.966e+00 *D DFFRNQ_X1 
in\[294\] I *L 0.000e+00 *S 2.811e+00 2.321e+00 *D DFFRNQ_X1 
in\[293\] I *L 0.000e+00 *S 3.089e+00 2.551e+00 *D DFFRNQ_X1 
in\[292\] I *L 0.000e+00 *S 2.922e+00 2.413e+00 *D DFFRNQ_X1 
in\[291\] I *L 0.000e+00 *S 3.084e+00 2.547e+00 *D DFFRNQ_X1 
in\[290\] I *L 0.000e+00 *S 1.351e+00 1.131e+00 *D DFFRNQ_X1 
in\[289\] I *L 0.000e+00 *S 2.133e+00 1.762e+00 *D DFFRNQ_X1 
in\[288\] I *L 0.000e+00 *S 2.946e+00 2.433e+00 *D DFFRNQ_X1 
in\[287\] I *L 0.000e+00 *S 1.462e+01 1.272e+01 *D DFFRNQ_X1 
in\[286\] I *L 0.000e+00 *S 1.428e+01 1.241e+01 *D DFFRNQ_X1 
in\[285\] I *L 0.000e+00 *S 1.398e+01 1.214e+01 *D DFFRNQ_X1 
in\[284\] I *L 0.000e+00 *S 1.412e+01 1.227e+01 *D DFFRNQ_X1 
in\[283\] I *L 0.000e+00 *S 1.233e+01 1.064e+01 *D DFFRNQ_X1 
in\[282\] I *L 0.000e+00 *S 1.407e+01 1.222e+01 *D DFFRNQ_X1 
in\[281\] I *L 0.000e+00 *S 1.280e+01 1.106e+01 *D DFFRNQ_X1 
in\[280\] I *L 0.000e+00 *S 1.335e+01 1.156e+01 *D DFFRNQ_X1 
in\[279\] I *L 0.000e+00 *S 1.259e+01 1.087e+01 *D DFFRNQ_X1 
in\[278\] I *L 0.000e+00 *S 1.279e+01 1.106e+01 *D DFFRNQ_X1 
in\[277\] I *L 0.000e+00 *S 1.268e+01 1.095e+01 *D DFFRNQ_X1 
in\[276\] I *L 0.000e+00 *S 1.335e+01 1.157e+01 *D DFFRNQ_X1 
in\[275\] I *L 0.000e+00 *S 1.226e+01 1.058e+01 *D DFFRNQ_X1 
in\[274\] I *L 0.000e+00 *S 1.218e+01 1.050e+01 *D DFFRNQ_X1 
in\[273\] I *L 0.000e+00 *S 1.245e+01 1.075e+01 *D DFFRNQ_X1 
in\[272\] I *L 0.000e+00 *S 1.226e+01 1.058e+01 *D DFFRNQ_X1 
in\[271\] I *L 0.000e+00 *S 1.196e+01 1.031e+01 *D DFFRNQ_X1 
in\[270\] I *L 0.000e+00 *S 1.208e+01 1.041e+01 *D DFFRNQ_X1 
in\[269\] I *L 0.000e+00 *S 1.199e+01 1.033e+01 *D DFFRNQ_X1 
in\[268\] I *L 0.000e+00 *S 1.291e+01 1.117e+01 *D DFFRNQ_X1 
in\[267\] I *L 0.000e+00 *S 1.306e+01 1.130e+01 *D DFFRNQ_X1 
in\[266\] I *L 0.000e+00 *S 1.404e+01 1.220e+01 *D DFFRNQ_X1 
in\[265\] I *L 0.000e+00 *S 1.249e+01 1.079e+01 *D DFFRNQ_X1 
in\[264\] I *L 0.000e+00 *S 1.204e+01 1.038e+01 *D DFFRNQ_X1 
in\[263\] I *L 0.000e+00 *S 1.363e+01 1.182e+01 *D DFFRNQ_X1 
in\[262\] I *L 0.000e+00 *S 1.434e+01 1.247e+01 *D DFFRNQ_X1 
in\[261\] I *L 0.000e+00 *S 1.243e+01 1.073e+01 *D DFFRNQ_X1 
in\[260\] I *L 0.000e+00 *S 1.409e+01 1.224e+01 *D DFFRNQ_X1 
in\[259\] I *L 0.000e+00 *S 1.244e+01 1.074e+01 *D DFFRNQ_X1 
in\[258\] I *L 0.000e+00 *S 1.323e+01 1.146e+01 *D DFFRNQ_X1 
in\[257\] I *L 0.000e+00 *S 1.386e+01 1.203e+01 *D DFFRNQ_X1 
in\[256\] I *L 0.000e+00 *S 1.244e+01 1.074e+01 *D DFFRNQ_X1 
in\[255\] I *L 0.000e+00 *S 1.484e+01 1.292e+01 *D DFFRNQ_X1 
in\[254\] I *L 0.000e+00 *S 1.454e+01 1.264e+01 *D DFFRNQ_X1 
in\[253\] I *L 0.000e+00 *S 1.417e+01 1.231e+01 *D DFFRNQ_X1 
in\[252\] I *L 0.000e+00 *S 1.421e+01 1.234e+01 *D DFFRNQ_X1 
in\[251\] I *L 0.000e+00 *S 1.233e+01 1.064e+01 *D DFFRNQ_X1 
in\[250\] I *L 0.000e+00 *S 1.450e+01 1.261e+01 *D DFFRNQ_X1 
in\[249\] I *L 0.000e+00 *S 1.361e+01 1.180e+01 *D DFFRNQ_X1 
in\[248\] I *L 0.000e+00 *S 1.352e+01 1.172e+01 *D DFFRNQ_X1 
in\[247\] I *L 0.000e+00 *S 1.263e+01 1.091e+01 *D DFFRNQ_X1 
in\[246\] I *L 0.000e+00 *S 1.342e+01 1.162e+01 *D DFFRNQ_X1 
in\[245\] I *L 0.000e+00 *S 1.277e+01 1.104e+01 *D DFFRNQ_X1 
in\[244\] I *L 0.000e+00 *S 1.387e+01 1.204e+01 *D DFFRNQ_X1 
in\[243\] I *L 0.000e+00 *S 1.262e+01 1.090e+01 *D DFFRNQ_X1 
in\[242\] I *L 0.000e+00 *S 1.234e+01 1.065e+01 *D DFFRNQ_X1 
in\[241\] I *L 0.000e+00 *S 1.266e+01 1.094e+01 *D DFFRNQ_X1 
in\[240\] I *L 0.000e+00 *S 1.236e+01 1.067e+01 *D DFFRNQ_X1 
in\[239\] I *L 0.000e+00 *S 1.205e+01 1.039e+01 *D DFFRNQ_X1 
in\[238\] I *L 0.000e+00 *S 1.229e+01 1.060e+01 *D DFFRNQ_X1 
in\[237\] I *L 0.000e+00 *S 1.197e+01 1.031e+01 *D DFFRNQ_X1 
in\[236\] I *L 0.000e+00 *S 1.351e+01 1.171e+01 *D DFFRNQ_X1 
in\[235\] I *L 0.000e+00 *S 1.320e+01 1.143e+01 *D DFFRNQ_X1 
in\[234\] I *L 0.000e+00 *S 1.458e+01 1.268e+01 *D DFFRNQ_X1 
in\[233\] I *L 0.000e+00 *S 1.255e+01 1.084e+01 *D DFFRNQ_X1 
in\[232\] I *L 0.000e+00 *S 1.218e+01 1.050e+01 *D DFFRNQ_X1 
in\[231\] I *L 0.000e+00 *S 1.404e+01 1.219e+01 *D DFFRNQ_X1 
in\[230\] I *L 0.000e+00 *S 1.438e+01 1.250e+01 *D DFFRNQ_X1 
in\[229\] I *L 0.000e+00 *S 1.223e+01 1.055e+01 *D DFFRNQ_X1 
in\[228\] I *L 0.000e+00 *S 1.416e+01 1.230e+01 *D DFFRNQ_X1 
in\[227\] I *L 0.000e+00 *S 1.225e+01 1.056e+01 *D DFFRNQ_X1 
in\[226\] I *L 0.000e+00 *S 1.336e+01 1.157e+01 *D DFFRNQ_X1 
in\[225\] I *L 0.000e+00 *S 1.388e+01 1.205e+01 *D DFFRNQ_X1 
in\[224\] I *L 0.000e+00 *S 1.237e+01 1.068e+01 *D DFFRNQ_X1 
in\[223\] I *L 0.000e+00 *S 1.459e+01 1.269e+01 *D DFFRNQ_X1 
in\[222\] I *L 0.000e+00 *S 1.445e+01 1.256e+01 *D DFFRNQ_X1 
in\[221\] I *L 0.000e+00 *S 1.381e+01 1.198e+01 *D DFFRNQ_X1 
in\[220\] I *L 0.000e+00 *S 1.390e+01 1.206e+01 *D DFFRNQ_X1 
in\[219\] I *L 0.000e+00 *S 1.200e+01 1.034e+01 *D DFFRNQ_X1 
in\[218\] I *L 0.000e+00 *S 1.395e+01 1.211e+01 *D DFFRNQ_X1 
in\[217\] I *L 0.000e+00 *S 1.294e+01 1.119e+01 *D DFFRNQ_X1 
in\[216\] I *L 0.000e+00 *S 1.342e+01 1.163e+01 *D DFFRNQ_X1 
in\[215\] I *L 0.000e+00 *S 1.247e+01 1.077e+01 *D DFFRNQ_X1 
in\[214\] I *L 0.000e+00 *S 1.320e+01 1.143e+01 *D DFFRNQ_X1 
in\[213\] I *L 0.000e+00 *S 1.243e+01 1.073e+01 *D DFFRNQ_X1 
in\[212\] I *L 0.000e+00 *S 1.364e+01 1.183e+01 *D DFFRNQ_X1 
in\[211\] I *L 0.000e+00 *S 1.226e+01 1.058e+01 *D DFFRNQ_X1 
in\[210\] I *L 0.000e+00 *S 1.194e+01 1.029e+01 *D DFFRNQ_X1 
in\[209\] I *L 0.000e+00 *S 1.235e+01 1.065e+01 *D DFFRNQ_X1 
in\[208\] I *L 0.000e+00 *S 1.193e+01 1.027e+01 *D DFFRNQ_X1 
in\[207\] I *L 0.000e+00 *S 1.193e+01 1.027e+01 *D DFFRNQ_X1 
in\[206\] I *L 0.000e+00 *S 1.203e+01 1.036e+01 *D DFFRNQ_X1 
in\[205\] I *L 0.000e+00 *S 1.164e+01 1.001e+01 *D DFFRNQ_X1 
in\[204\] I *L 0.000e+00 *S 1.337e+01 1.158e+01 *D DFFRNQ_X1 
in\[203\] I *L 0.000e+00 *S 1.293e+01 1.118e+01 *D DFFRNQ_X1 
in\[202\] I *L 0.000e+00 *S 1.423e+01 1.237e+01 *D DFFRNQ_X1 
in\[201\] I *L 0.000e+00 *S 1.268e+01 1.095e+01 *D DFFRNQ_X1 
in\[200\] I *L 0.000e+00 *S 1.208e+01 1.041e+01 *D DFFRNQ_X1 
in\[199\] I *L 0.000e+00 *S 1.401e+01 1.216e+01 *D DFFRNQ_X1 
in\[198\] I *L 0.000e+00 *S 1.437e+01 1.249e+01 *D DFFRNQ_X1 
in\[197\] I *L 0.000e+00 *S 1.248e+01 1.078e+01 *D DFFRNQ_X1 
in\[196\] I *L 0.000e+00 *S 1.429e+01 1.242e+01 *D DFFRNQ_X1 
in\[195\] I *L 0.000e+00 *S 1.249e+01 1.078e+01 *D DFFRNQ_X1 
in\[194\] I *L 0.000e+00 *S 1.308e+01 1.132e+01 *D DFFRNQ_X1 
in\[193\] I *L 0.000e+00 *S 1.401e+01 1.217e+01 *D DFFRNQ_X1 
in\[192\] I *L 0.000e+00 *S 1.249e+01 1.079e+01 *D DFFRNQ_X1 
in\[191\] I *L 0.000e+00 *S 2.295e+00 1.896e+00 *D DFFRNQ_X1 
in\[190\] I *L 0.000e+00 *S 1.312e+00 1.101e+00 *D DFFRNQ_X1 
in\[189\] I *L 0.000e+00 *S 2.490e+00 2.056e+00 *D DFFRNQ_X1 
in\[188\] I *L 0.000e+00 *S 2.057e+00 1.699e+00 *D DFFRNQ_X1 
in\[187\] I *L 0.000e+00 *S 1.314e+00 1.102e+00 *D DFFRNQ_X1 
in\[186\] I *L 0.000e+00 *S 2.590e+00 2.139e+00 *D DFFRNQ_X1 
in\[185\] I *L 0.000e+00 *S 1.327e+00 1.113e+00 *D DFFRNQ_X1 
in\[184\] I *L 0.000e+00 *S 1.328e+00 1.114e+00 *D DFFRNQ_X1 
in\[183\] I *L 0.000e+00 *S 1.309e+00 1.098e+00 *D DFFRNQ_X1 
in\[182\] I *L 0.000e+00 *S 1.315e+00 1.103e+00 *D DFFRNQ_X1 
in\[181\] I *L 0.000e+00 *S 1.317e+00 1.105e+00 *D DFFRNQ_X1 
in\[180\] I *L 0.000e+00 *S 1.334e+00 1.118e+00 *D DFFRNQ_X1 
in\[179\] I *L 0.000e+00 *S 1.733e+00 1.436e+00 *D DFFRNQ_X1 
in\[178\] I *L 0.000e+00 *S 2.445e+00 2.020e+00 *D DFFRNQ_X1 
in\[177\] I *L 0.000e+00 *S 1.585e+00 1.318e+00 *D DFFRNQ_X1 
in\[176\] I *L 0.000e+00 *S 1.821e+00 1.506e+00 *D DFFRNQ_X1 
in\[175\] I *L 0.000e+00 *S 1.709e+00 1.417e+00 *D DFFRNQ_X1 
in\[174\] I *L 0.000e+00 *S 1.789e+00 1.480e+00 *D DFFRNQ_X1 
in\[173\] I *L 0.000e+00 *S 1.686e+00 1.399e+00 *D DFFRNQ_X1 
in\[172\] I *L 0.000e+00 *S 3.379e+00 2.795e+00 *D DFFRNQ_X1 
in\[171\] I *L 0.000e+00 *S 3.438e+00 2.847e+00 *D DFFRNQ_X1 
in\[170\] I *L 0.000e+00 *S 3.803e+00 3.167e+00 *D DFFRNQ_X1 
in\[169\] I *L 0.000e+00 *S 2.584e+00 2.134e+00 *D DFFRNQ_X1 
in\[168\] I *L 0.000e+00 *S 2.103e+00 1.737e+00 *D DFFRNQ_X1 
in\[167\] I *L 0.000e+00 *S 2.282e+00 1.885e+00 *D DFFRNQ_X1 
in\[166\] I *L 0.000e+00 *S 2.325e+00 1.920e+00 *D DFFRNQ_X1 
in\[165\] I *L 0.000e+00 *S 2.654e+00 2.192e+00 *D DFFRNQ_X1 
in\[164\] I *L 0.000e+00 *S 2.645e+00 2.184e+00 *D DFFRNQ_X1 
in\[163\] I *L 0.000e+00 *S 2.725e+00 2.250e+00 *D DFFRNQ_X1 
in\[162\] I *L 0.000e+00 *S 1.312e+00 1.100e+00 *D DFFRNQ_X1 
in\[161\] I *L 0.000e+00 *S 2.222e+00 1.835e+00 *D DFFRNQ_X1 
in\[160\] I *L 0.000e+00 *S 2.826e+00 2.334e+00 *D DFFRNQ_X1 
in\[159\] I *L 0.000e+00 *S 1.449e+01 1.260e+01 *D DFFRNQ_X1 
in\[158\] I *L 0.000e+00 *S 1.415e+01 1.229e+01 *D DFFRNQ_X1 
in\[157\] I *L 0.000e+00 *S 1.385e+01 1.202e+01 *D DFFRNQ_X1 
in\[156\] I *L 0.000e+00 *S 1.400e+01 1.216e+01 *D DFFRNQ_X1 
in\[155\] I *L 0.000e+00 *S 1.219e+01 1.051e+01 *D DFFRNQ_X1 
in\[154\] I *L 0.000e+00 *S 1.394e+01 1.210e+01 *D DFFRNQ_X1 
in\[153\] I *L 0.000e+00 *S 1.266e+01 1.094e+01 *D DFFRNQ_X1 
in\[152\] I *L 0.000e+00 *S 1.321e+01 1.144e+01 *D DFFRNQ_X1 
in\[151\] I *L 0.000e+00 *S 1.246e+01 1.075e+01 *D DFFRNQ_X1 
in\[150\] I *L 0.000e+00 *S 1.266e+01 1.093e+01 *D DFFRNQ_X1 
in\[149\] I *L 0.000e+00 *S 1.252e+01 1.081e+01 *D DFFRNQ_X1 
in\[148\] I *L 0.000e+00 *S 1.325e+01 1.147e+01 *D DFFRNQ_X1 
in\[147\] I *L 0.000e+00 *S 1.215e+01 1.047e+01 *D DFFRNQ_X1 
in\[146\] I *L 0.000e+00 *S 1.206e+01 1.039e+01 *D DFFRNQ_X1 
in\[145\] I *L 0.000e+00 *S 1.233e+01 1.064e+01 *D DFFRNQ_X1 
in\[144\] I *L 0.000e+00 *S 1.214e+01 1.047e+01 *D DFFRNQ_X1 
in\[143\] I *L 0.000e+00 *S 1.185e+01 1.020e+01 *D DFFRNQ_X1 
in\[142\] I *L 0.000e+00 *S 1.196e+01 1.031e+01 *D DFFRNQ_X1 
in\[141\] I *L 0.000e+00 *S 1.187e+01 1.022e+01 *D DFFRNQ_X1 
in\[140\] I *L 0.000e+00 *S 1.280e+01 1.106e+01 *D DFFRNQ_X1 
in\[139\] I *L 0.000e+00 *S 1.294e+01 1.119e+01 *D DFFRNQ_X1 
in\[138\] I *L 0.000e+00 *S 1.393e+01 1.209e+01 *D DFFRNQ_X1 
in\[137\] I *L 0.000e+00 *S 1.237e+01 1.068e+01 *D DFFRNQ_X1 
in\[136\] I *L 0.000e+00 *S 1.193e+01 1.027e+01 *D DFFRNQ_X1 
in\[135\] I *L 0.000e+00 *S 1.348e+01 1.168e+01 *D DFFRNQ_X1 
in\[134\] I *L 0.000e+00 *S 1.419e+01 1.232e+01 *D DFFRNQ_X1 
in\[133\] I *L 0.000e+00 *S 1.227e+01 1.058e+01 *D DFFRNQ_X1 
in\[132\] I *L 0.000e+00 *S 1.394e+01 1.210e+01 *D DFFRNQ_X1 
in\[131\] I *L 0.000e+00 *S 1.229e+01 1.060e+01 *D DFFRNQ_X1 
in\[130\] I *L 0.000e+00 *S 1.308e+01 1.132e+01 *D DFFRNQ_X1 
in\[129\] I *L 0.000e+00 *S 1.371e+01 1.189e+01 *D DFFRNQ_X1 
in\[128\] I *L 0.000e+00 *S 1.228e+01 1.060e+01 *D DFFRNQ_X1 
in\[127\] I *L 0.000e+00 *S 2.260e+00 1.867e+00 *D DFFRNQ_X1 
in\[126\] I *L 0.000e+00 *S 1.403e+00 1.173e+00 *D DFFRNQ_X1 
in\[125\] I *L 0.000e+00 *S 2.448e+00 2.022e+00 *D DFFRNQ_X1 
in\[124\] I *L 0.000e+00 *S 2.030e+00 1.677e+00 *D DFFRNQ_X1 
in\[123\] I *L 0.000e+00 *S 1.307e+00 1.097e+00 *D DFFRNQ_X1 
in\[122\] I *L 0.000e+00 *S 2.693e+00 2.224e+00 *D DFFRNQ_X1 
in\[121\] I *L 0.000e+00 *S 1.488e+00 1.241e+00 *D DFFRNQ_X1 
in\[120\] I *L 0.000e+00 *S 1.460e+00 1.218e+00 *D DFFRNQ_X1 
in\[119\] I *L 0.000e+00 *S 1.312e+00 1.100e+00 *D DFFRNQ_X1 
in\[118\] I *L 0.000e+00 *S 1.330e+00 1.115e+00 *D DFFRNQ_X1 
in\[117\] I *L 0.000e+00 *S 1.611e+00 1.338e+00 *D DFFRNQ_X1 
in\[116\] I *L 0.000e+00 *S 1.460e+00 1.218e+00 *D DFFRNQ_X1 
in\[115\] I *L 0.000e+00 *S 1.715e+00 1.422e+00 *D DFFRNQ_X1 
in\[114\] I *L 0.000e+00 *S 2.461e+00 2.032e+00 *D DFFRNQ_X1 
in\[113\] I *L 0.000e+00 *S 1.718e+00 1.424e+00 *D DFFRNQ_X1 
in\[112\] I *L 0.000e+00 *S 1.591e+00 1.323e+00 *D DFFRNQ_X1 
in\[111\] I *L 0.000e+00 *S 1.560e+00 1.298e+00 *D DFFRNQ_X1 
in\[110\] I *L 0.000e+00 *S 1.564e+00 1.301e+00 *D DFFRNQ_X1 
in\[109\] I *L 0.000e+00 *S 1.605e+00 1.334e+00 *D DFFRNQ_X1 
in\[108\] I *L 0.000e+00 *S 3.457e+00 2.864e+00 *D DFFRNQ_X1 
in\[107\] I *L 0.000e+00 *S 3.317e+00 2.741e+00 *D DFFRNQ_X1 
in\[106\] I *L 0.000e+00 *S 3.594e+00 2.983e+00 *D DFFRNQ_X1 
in\[105\] I *L 0.000e+00 *S 2.482e+00 2.050e+00 *D DFFRNQ_X1 
in\[104\] I *L 0.000e+00 *S 1.859e+00 1.536e+00 *D DFFRNQ_X1 
in\[103\] I *L 0.000e+00 *S 2.449e+00 2.023e+00 *D DFFRNQ_X1 
in\[102\] I *L 0.000e+00 *S 2.865e+00 2.366e+00 *D DFFRNQ_X1 
in\[101\] I *L 0.000e+00 *S 3.043e+00 2.513e+00 *D DFFRNQ_X1 
in\[100\] I *L 0.000e+00 *S 2.896e+00 2.392e+00 *D DFFRNQ_X1 
in\[99\] I *L 0.000e+00 *S 2.961e+00 2.446e+00 *D DFFRNQ_X1 
in\[98\] I *L 0.000e+00 *S 1.357e+00 1.136e+00 *D DFFRNQ_X1 
in\[97\] I *L 0.000e+00 *S 2.153e+00 1.778e+00 *D DFFRNQ_X1 
in\[96\] I *L 0.000e+00 *S 3.096e+00 2.557e+00 *D DFFRNQ_X1 
in\[95\] I *L 0.000e+00 *S 1.440e+01 1.252e+01 *D DFFRNQ_X1 
in\[94\] I *L 0.000e+00 *S 1.386e+01 1.203e+01 *D DFFRNQ_X1 
in\[93\] I *L 0.000e+00 *S 1.330e+01 1.152e+01 *D DFFRNQ_X1 
in\[92\] I *L 0.000e+00 *S 1.348e+01 1.168e+01 *D DFFRNQ_X1 
in\[91\] I *L 0.000e+00 *S 1.169e+01 1.006e+01 *D DFFRNQ_X1 
in\[90\] I *L 0.000e+00 *S 1.372e+01 1.191e+01 *D DFFRNQ_X1 
in\[89\] I *L 0.000e+00 *S 1.254e+01 1.083e+01 *D DFFRNQ_X1 
in\[88\] I *L 0.000e+00 *S 1.295e+01 1.120e+01 *D DFFRNQ_X1 
in\[87\] I *L 0.000e+00 *S 1.199e+01 1.033e+01 *D DFFRNQ_X1 
in\[86\] I *L 0.000e+00 *S 1.245e+01 1.075e+01 *D DFFRNQ_X1 
in\[85\] I *L 0.000e+00 *S 1.213e+01 1.046e+01 *D DFFRNQ_X1 
in\[84\] I *L 0.000e+00 *S 1.284e+01 1.111e+01 *D DFFRNQ_X1 
in\[83\] I *L 0.000e+00 *S 1.200e+01 1.034e+01 *D DFFRNQ_X1 
in\[82\] I *L 0.000e+00 *S 1.165e+01 1.002e+01 *D DFFRNQ_X1 
in\[81\] I *L 0.000e+00 *S 1.193e+01 1.028e+01 *D DFFRNQ_X1 
in\[80\] I *L 0.000e+00 *S 1.171e+01 1.008e+01 *D DFFRNQ_X1 
in\[79\] I *L 0.000e+00 *S 1.141e+01 9.805e+00 *D DFFRNQ_X1 
in\[78\] I *L 0.000e+00 *S 1.167e+01 1.004e+01 *D DFFRNQ_X1 
in\[77\] I *L 0.000e+00 *S 1.148e+01 9.869e+00 *D DFFRNQ_X1 
in\[76\] I *L 0.000e+00 *S 1.279e+01 1.106e+01 *D DFFRNQ_X1 
in\[75\] I *L 0.000e+00 *S 1.246e+01 1.076e+01 *D DFFRNQ_X1 
in\[74\] I *L 0.000e+00 *S 1.386e+01 1.203e+01 *D DFFRNQ_X1 
in\[73\] I *L 0.000e+00 *S 1.197e+01 1.031e+01 *D DFFRNQ_X1 
in\[72\] I *L 0.000e+00 *S 1.165e+01 1.002e+01 *D DFFRNQ_X1 
in\[71\] I *L 0.000e+00 *S 1.342e+01 1.163e+01 *D DFFRNQ_X1 
in\[70\] I *L 0.000e+00 *S 1.362e+01 1.181e+01 *D DFFRNQ_X1 
in\[69\] I *L 0.000e+00 *S 1.171e+01 1.008e+01 *D DFFRNQ_X1 
in\[68\] I *L 0.000e+00 *S 1.363e+01 1.182e+01 *D DFFRNQ_X1 
in\[67\] I *L 0.000e+00 *S 1.164e+01 1.001e+01 *D DFFRNQ_X1 
in\[66\] I *L 0.000e+00 *S 1.272e+01 1.100e+01 *D DFFRNQ_X1 
in\[65\] I *L 0.000e+00 *S 1.328e+01 1.150e+01 *D DFFRNQ_X1 
in\[64\] I *L 0.000e+00 *S 1.180e+01 1.016e+01 *D DFFRNQ_X1 
in\[63\] I *L 0.000e+00 *S 5.164e+00 4.360e+00 *D DFFRNQ_X1 
in\[62\] I *L 0.000e+00 *S 7.756e+00 6.602e+00 *D DFFRNQ_X1 
in\[61\] I *L 0.000e+00 *S 5.145e+00 4.343e+00 *D DFFRNQ_X1 
in\[60\] I *L 0.000e+00 *S 5.657e+00 4.792e+00 *D DFFRNQ_X1 
in\[59\] I *L 0.000e+00 *S 7.798e+00 6.638e+00 *D DFFRNQ_X1 
in\[58\] I *L 0.000e+00 *S 4.802e+00 4.043e+00 *D DFFRNQ_X1 
in\[57\] I *L 0.000e+00 *S 6.686e+00 5.680e+00 *D DFFRNQ_X1 
in\[56\] I *L 0.000e+00 *S 7.315e+00 6.222e+00 *D DFFRNQ_X1 
in\[55\] I *L 0.000e+00 *S 7.228e+00 6.147e+00 *D DFFRNQ_X1 
in\[54\] I *L 0.000e+00 *S 7.311e+00 6.218e+00 *D DFFRNQ_X1 
in\[53\] I *L 0.000e+00 *S 6.986e+00 5.938e+00 *D DFFRNQ_X1 
in\[52\] I *L 0.000e+00 *S 7.193e+00 6.117e+00 *D DFFRNQ_X1 
in\[51\] I *L 0.000e+00 *S 6.138e+00 5.208e+00 *D DFFRNQ_X1 
in\[50\] I *L 0.000e+00 *S 6.506e+00 5.525e+00 *D DFFRNQ_X1 
in\[49\] I *L 0.000e+00 *S 6.251e+00 5.305e+00 *D DFFRNQ_X1 
in\[48\] I *L 0.000e+00 *S 6.250e+00 5.305e+00 *D DFFRNQ_X1 
in\[47\] I *L 0.000e+00 *S 5.774e+00 4.894e+00 *D DFFRNQ_X1 
in\[46\] I *L 0.000e+00 *S 4.876e+00 4.108e+00 *D DFFRNQ_X1 
in\[45\] I *L 0.000e+00 *S 6.008e+00 5.096e+00 *D DFFRNQ_X1 
in\[44\] I *L 0.000e+00 *S 5.777e+00 4.896e+00 *D DFFRNQ_X1 
in\[43\] I *L 0.000e+00 *S 7.018e+00 5.966e+00 *D DFFRNQ_X1 
in\[42\] I *L 0.000e+00 *S 5.964e+00 5.058e+00 *D DFFRNQ_X1 
in\[41\] I *L 0.000e+00 *S 4.688e+00 3.943e+00 *D DFFRNQ_X1 
in\[40\] I *L 0.000e+00 *S 4.518e+00 3.793e+00 *D DFFRNQ_X1 
in\[39\] I *L 0.000e+00 *S 5.843e+00 4.954e+00 *D DFFRNQ_X1 
in\[38\] I *L 0.000e+00 *S 6.348e+00 5.389e+00 *D DFFRNQ_X1 
in\[37\] I *L 0.000e+00 *S 4.690e+00 3.944e+00 *D DFFRNQ_X1 
in\[36\] I *L 0.000e+00 *S 6.047e+00 5.129e+00 *D DFFRNQ_X1 
in\[35\] I *L 0.000e+00 *S 4.225e+00 3.537e+00 *D DFFRNQ_X1 
in\[34\] I *L 0.000e+00 *S 6.521e+00 5.538e+00 *D DFFRNQ_X1 
in\[33\] I *L 0.000e+00 *S 6.584e+00 5.592e+00 *D DFFRNQ_X1 
in\[32\] I *L 0.000e+00 *S 4.228e+00 3.539e+00 *D DFFRNQ_X1 
in\[31\] I *L 0.000e+00 *S 2.305e+00 1.904e+00 *D DFFRNQ_X1 
in\[30\] I *L 0.000e+00 *S 1.626e+00 1.351e+00 *D DFFRNQ_X1 
in\[29\] I *L 0.000e+00 *S 2.476e+00 2.045e+00 *D DFFRNQ_X1 
in\[28\] I *L 0.000e+00 *S 2.161e+00 1.785e+00 *D DFFRNQ_X1 
in\[27\] I *L 0.000e+00 *S 1.590e+00 1.322e+00 *D DFFRNQ_X1 
in\[26\] I *L 0.000e+00 *S 3.120e+00 2.576e+00 *D DFFRNQ_X1 
in\[25\] I *L 0.000e+00 *S 1.566e+00 1.303e+00 *D DFFRNQ_X1 
in\[24\] I *L 0.000e+00 *S 1.609e+00 1.337e+00 *D DFFRNQ_X1 
in\[23\] I *L 0.000e+00 *S 1.683e+00 1.396e+00 *D DFFRNQ_X1 
in\[22\] I *L 0.000e+00 *S 1.624e+00 1.349e+00 *D DFFRNQ_X1 
in\[21\] I *L 0.000e+00 *S 1.773e+00 1.468e+00 *D DFFRNQ_X1 
in\[20\] I *L 0.000e+00 *S 1.592e+00 1.324e+00 *D DFFRNQ_X1 
in\[19\] I *L 0.000e+00 *S 2.056e+00 1.698e+00 *D DFFRNQ_X1 
in\[18\] I *L 0.000e+00 *S 2.520e+00 2.081e+00 *D DFFRNQ_X1 
in\[17\] I *L 0.000e+00 *S 1.826e+00 1.510e+00 *D DFFRNQ_X1 
in\[16\] I *L 0.000e+00 *S 1.820e+00 1.505e+00 *D DFFRNQ_X1 
in\[15\] I *L 0.000e+00 *S 1.874e+00 1.548e+00 *D DFFRNQ_X1 
in\[14\] I *L 0.000e+00 *S 1.831e+00 1.514e+00 *D DFFRNQ_X1 
in\[13\] I *L 0.000e+00 *S 1.791e+00 1.482e+00 *D DFFRNQ_X1 
in\[12\] I *L 0.000e+00 *S 3.181e+00 2.627e+00 *D DFFRNQ_X1 
in\[11\] I *L 0.000e+00 *S 3.473e+00 2.878e+00 *D DFFRNQ_X1 
in\[10\] I *L 0.000e+00 *S 3.720e+00 3.094e+00 *D DFFRNQ_X1 
in\[9\] I *L 0.000e+00 *S 2.434e+00 2.010e+00 *D DFFRNQ_X1 
in\[8\] I *L 0.000e+00 *S 2.077e+00 1.715e+00 *D DFFRNQ_X1 
in\[7\] I *L 0.000e+00 *S 2.531e+00 2.091e+00 *D DFFRNQ_X1 
in\[6\] I *L 0.000e+00 *S 2.681e+00 2.214e+00 *D DFFRNQ_X1 
in\[5\] I *L 0.000e+00 *S 3.276e+00 2.706e+00 *D DFFRNQ_X1 
in\[4\] I *L 0.000e+00 *S 3.186e+00 2.631e+00 *D DFFRNQ_X1 
in\[3\] I *L 0.000e+00 *S 3.116e+00 2.574e+00 *D DFFRNQ_X1 
in\[2\] I *L 0.000e+00 *S 1.718e+00 1.424e+00 *D DFFRNQ_X1 
in\[1\] I *L 0.000e+00 *S 2.307e+00 1.905e+00 *D DFFRNQ_X1 
in\[0\] I *L 0.000e+00 *S 3.248e+00 2.683e+00 *D DFFRNQ_X1 
req\[143\] I *L 0.000e+00 *S 3.511e+00 2.911e+00 *D DFFRNQ_X1 
req\[142\] I *L 0.000e+00 *S 3.373e+00 2.790e+00 *D DFFRNQ_X1 
req\[141\] I *L 0.000e+00 *S 3.327e+00 2.749e+00 *D DFFRNQ_X1 
req\[140\] I *L 0.000e+00 *S 3.341e+00 2.762e+00 *D DFFRNQ_X1 
req\[139\] I *L 0.000e+00 *S 3.430e+00 2.840e+00 *D DFFRNQ_X1 
req\[138\] I *L 0.000e+00 *S 3.353e+00 2.773e+00 *D DFFRNQ_X1 
req\[137\] I *L 0.000e+00 *S 3.549e+00 2.944e+00 *D DFFRNQ_X1 
req\[136\] I *L 0.000e+00 *S 3.336e+00 2.758e+00 *D DFFRNQ_X1 
req\[135\] I *L 0.000e+00 *S 3.816e+00 3.179e+00 *D DFFRNQ_X1 
req\[134\] I *L 0.000e+00 *S 3.283e+00 2.711e+00 *D DFFRNQ_X1 
req\[133\] I *L 0.000e+00 *S 3.645e+00 3.028e+00 *D DFFRNQ_X1 
req\[132\] I *L 0.000e+00 *S 3.874e+00 3.230e+00 *D DFFRNQ_X1 
req\[131\] I *L 0.000e+00 *S 3.041e+00 2.511e+00 *D DFFRNQ_X1 
req\[130\] I *L 0.000e+00 *S 2.758e+00 2.278e+00 *D DFFRNQ_X1 
req\[129\] I *L 0.000e+00 *S 3.828e+00 3.189e+00 *D DFFRNQ_X1 
req\[128\] I *L 0.000e+00 *S 3.592e+00 2.982e+00 *D DFFRNQ_X1 
req\[127\] I *L 0.000e+00 *S 3.775e+00 3.142e+00 *D DFFRNQ_X1 
req\[126\] I *L 0.000e+00 *S 3.716e+00 3.091e+00 *D DFFRNQ_X1 
req\[125\] I *L 0.000e+00 *S 4.521e+00 3.796e+00 *D DFFRNQ_X1 
req\[124\] I *L 0.000e+00 *S 3.360e+00 2.779e+00 *D DFFRNQ_X1 
req\[123\] I *L 0.000e+00 *S 3.706e+00 3.082e+00 *D DFFRNQ_X1 
req\[122\] I *L 0.000e+00 *S 4.473e+00 3.754e+00 *D DFFRNQ_X1 
req\[121\] I *L 0.000e+00 *S 4.546e+00 3.818e+00 *D DFFRNQ_X1 
req\[120\] I *L 0.000e+00 *S 4.589e+00 3.856e+00 *D DFFRNQ_X1 
req\[119\] I *L 0.000e+00 *S 5.403e+00 4.570e+00 *D DFFRNQ_X1 
req\[118\] I *L 0.000e+00 *S 5.415e+00 4.580e+00 *D DFFRNQ_X1 
req\[117\] I *L 0.000e+00 *S 3.402e+00 2.815e+00 *D DFFRNQ_X1 
req\[116\] I *L 0.000e+00 *S 3.350e+00 2.770e+00 *D DFFRNQ_X1 
req\[115\] I *L 0.000e+00 *S 3.469e+00 2.874e+00 *D DFFRNQ_X1 
req\[114\] I *L 0.000e+00 *S 3.374e+00 2.791e+00 *D DFFRNQ_X1 
req\[113\] I *L 0.000e+00 *S 3.635e+00 3.020e+00 *D DFFRNQ_X1 
req\[112\] I *L 0.000e+00 *S 3.384e+00 2.800e+00 *D DFFRNQ_X1 
req\[111\] I *L 0.000e+00 *S 3.931e+00 3.279e+00 *D DFFRNQ_X1 
req\[110\] I *L 0.000e+00 *S 3.349e+00 2.769e+00 *D DFFRNQ_X1 
req\[109\] I *L 0.000e+00 *S 3.673e+00 3.053e+00 *D DFFRNQ_X1 
req\[108\] I *L 0.000e+00 *S 3.924e+00 3.273e+00 *D DFFRNQ_X1 
req\[107\] I *L 0.000e+00 *S 3.006e+00 2.482e+00 *D DFFRNQ_X1 
req\[106\] I *L 0.000e+00 *S 4.693e+00 3.947e+00 *D DFFRNQ_X1 
req\[105\] I *L 0.000e+00 *S 3.849e+00 3.208e+00 *D DFFRNQ_X1 
req\[104\] I *L 0.000e+00 *S 3.536e+00 2.933e+00 *D DFFRNQ_X1 
req\[103\] I *L 0.000e+00 *S 3.942e+00 3.289e+00 *D DFFRNQ_X1 
req\[102\] I *L 0.000e+00 *S 3.792e+00 3.157e+00 *D DFFRNQ_X1 
req\[101\] I *L 0.000e+00 *S 4.461e+00 3.744e+00 *D DFFRNQ_X1 
req\[100\] I *L 0.000e+00 *S 3.390e+00 2.805e+00 *D DFFRNQ_X1 
req\[99\] I *L 0.000e+00 *S 3.727e+00 3.100e+00 *D DFFRNQ_X1 
req\[98\] I *L 0.000e+00 *S 4.503e+00 3.781e+00 *D DFFRNQ_X1 
req\[97\] I *L 0.000e+00 *S 4.502e+00 3.780e+00 *D DFFRNQ_X1 
req\[96\] I *L 0.000e+00 *S 4.589e+00 3.856e+00 *D DFFRNQ_X1 
req\[95\] I *L 0.000e+00 *S 1.862e+00 1.538e+00 *D DFFRNQ_X1 
req\[94\] I *L 0.000e+00 *S 1.594e+00 1.325e+00 *D DFFRNQ_X1 
req\[93\] I *L 0.000e+00 *S 2.878e+00 2.377e+00 *D DFFRNQ_X1 
req\[92\] I *L 0.000e+00 *S 2.132e+00 1.761e+00 *D DFFRNQ_X1 
req\[91\] I *L 0.000e+00 *S 2.998e+00 2.476e+00 *D DFFRNQ_X1 
req\[90\] I *L 0.000e+00 *S 1.898e+00 1.568e+00 *D DFFRNQ_X1 
req\[89\] I *L 0.000e+00 *S 3.419e+00 2.830e+00 *D DFFRNQ_X1 
req\[88\] I *L 0.000e+00 *S 2.502e+00 2.066e+00 *D DFFRNQ_X1 
req\[87\] I *L 0.000e+00 *S 2.643e+00 2.183e+00 *D DFFRNQ_X1 
req\[86\] I *L 0.000e+00 *S 3.163e+00 2.612e+00 *D DFFRNQ_X1 
req\[85\] I *L 0.000e+00 *S 3.221e+00 2.660e+00 *D DFFRNQ_X1 
req\[84\] I *L 0.000e+00 *S 1.601e+00 1.330e+00 *D DFFRNQ_X1 
req\[83\] I *L 0.000e+00 *S 2.966e+00 2.450e+00 *D DFFRNQ_X1 
req\[82\] I *L 0.000e+00 *S 4.850e+00 4.085e+00 *D DFFRNQ_X1 
req\[81\] I *L 0.000e+00 *S 3.856e+00 3.214e+00 *D DFFRNQ_X1 
req\[80\] I *L 0.000e+00 *S 3.503e+00 2.904e+00 *D DFFRNQ_X1 
req\[79\] I *L 0.000e+00 *S 3.863e+00 3.220e+00 *D DFFRNQ_X1 
req\[78\] I *L 0.000e+00 *S 5.315e+00 4.492e+00 *D DFFRNQ_X1 
req\[77\] I *L 0.000e+00 *S 4.719e+00 3.970e+00 *D DFFRNQ_X1 
req\[76\] I *L 0.000e+00 *S 3.442e+00 2.851e+00 *D DFFRNQ_X1 
req\[75\] I *L 0.000e+00 *S 3.698e+00 3.075e+00 *D DFFRNQ_X1 
req\[74\] I *L 0.000e+00 *S 4.880e+00 4.111e+00 *D DFFRNQ_X1 
req\[73\] I *L 0.000e+00 *S 4.767e+00 4.012e+00 *D DFFRNQ_X1 
req\[72\] I *L 0.000e+00 *S 4.595e+00 3.861e+00 *D DFFRNQ_X1 
req\[71\] I *L 0.000e+00 *S 3.535e+00 2.932e+00 *D DFFRNQ_X1 
req\[70\] I *L 0.000e+00 *S 3.408e+00 2.821e+00 *D DFFRNQ_X1 
req\[69\] I *L 0.000e+00 *S 3.360e+00 2.779e+00 *D DFFRNQ_X1 
req\[68\] I *L 0.000e+00 *S 3.426e+00 2.836e+00 *D DFFRNQ_X1 
req\[67\] I *L 0.000e+00 *S 3.428e+00 2.839e+00 *D DFFRNQ_X1 
req\[66\] I *L 0.000e+00 *S 3.354e+00 2.773e+00 *D DFFRNQ_X1 
req\[65\] I *L 0.000e+00 *S 3.543e+00 2.939e+00 *D DFFRNQ_X1 
req\[64\] I *L 0.000e+00 *S 3.390e+00 2.805e+00 *D DFFRNQ_X1 
req\[63\] I *L 0.000e+00 *S 3.776e+00 3.143e+00 *D DFFRNQ_X1 
req\[62\] I *L 0.000e+00 *S 3.339e+00 2.760e+00 *D DFFRNQ_X1 
req\[61\] I *L 0.000e+00 *S 3.627e+00 3.013e+00 *D DFFRNQ_X1 
req\[60\] I *L 0.000e+00 *S 3.888e+00 3.241e+00 *D DFFRNQ_X1 
req\[59\] I *L 0.000e+00 *S 4.731e+00 3.980e+00 *D DFFRNQ_X1 
req\[58\] I *L 0.000e+00 *S 2.793e+00 2.307e+00 *D DFFRNQ_X1 
req\[57\] I *L 0.000e+00 *S 3.900e+00 3.252e+00 *D DFFRNQ_X1 
req\[56\] I *L 0.000e+00 *S 5.224e+00 4.412e+00 *D DFFRNQ_X1 
req\[55\] I *L 0.000e+00 *S 4.071e+00 3.402e+00 *D DFFRNQ_X1 
req\[54\] I *L 0.000e+00 *S 4.898e+00 4.127e+00 *D DFFRNQ_X1 
req\[53\] I *L 0.000e+00 *S 4.503e+00 3.780e+00 *D DFFRNQ_X1 
req\[52\] I *L 0.000e+00 *S 3.358e+00 2.777e+00 *D DFFRNQ_X1 
req\[51\] I *L 0.000e+00 *S 3.772e+00 3.140e+00 *D DFFRNQ_X1 
req\[50\] I *L 0.000e+00 *S 4.809e+00 4.049e+00 *D DFFRNQ_X1 