*SPEF "IEEE 1481-1999"
*DESIGN "MulDiv"
*DATE "Tue Oct 15 17:44:04 2019"
*VENDOR "SYNOPSYS INC"
*PROGRAM "Synopsys Design Compiler cmos"
*VERSION "P-2019.03-SP1"
*DESIGN_FLOW "SYNTHESIS"
*DIVIDER /
*DELIMITER :
*BUS_DELIMITER []
*T_UNIT 0.0010 NS
*C_UNIT 0.0010 PF
*R_UNIT 1.0 KOHM
*L_UNIT 1.0 HENRY

*PORTS

clock I *L 0.000e+00 *S 0.000e+00 0.000e+00 
reset I *L 0.000e+00 *S 2.938e+00 2.426e+00 *D DFFRNQ_X1 
io_req_ready O *L 2.546e+00 *S 3.795e+00 3.318e+00 
io_req_valid I *L 0.000e+00 *S 2.138e+00 1.766e+00 *D DFFRNQ_X1 
io_req_bits_fn\[3\] I *L 0.000e+00 *S 0.000e+00 0.000e+00 *D DFFRNQ_X1 
io_req_bits_fn\[2\] I *L 0.000e+00 *S 6.100e+00 5.175e+00 *D DFFRNQ_X1 
io_req_bits_fn\[1\] I *L 0.000e+00 *S 4.056e+00 3.389e+00 *D DFFRNQ_X1 
io_req_bits_fn\[0\] I *L 0.000e+00 *S 6.527e+00 5.543e+00 *D DFFRNQ_X1 
io_req_bits_dw I *L 0.000e+00 *S 6.411e+00 5.443e+00 *D DFFRNQ_X1 
io_req_bits_in1\[63\] I *L 0.000e+00 *S 3.907e+00 3.258e+00 *D DFFRNQ_X1 
io_req_bits_in1\[62\] I *L 0.000e+00 *S 2.777e+00 2.293e+00 *D DFFRNQ_X1 
io_req_bits_in1\[61\] I *L 0.000e+00 *S 2.838e+00 2.344e+00 *D DFFRNQ_X1 
io_req_bits_in1\[60\] I *L 0.000e+00 *S 2.839e+00 2.344e+00 *D DFFRNQ_X1 
io_req_bits_in1\[59\] I *L 0.000e+00 *S 2.766e+00 2.285e+00 *D DFFRNQ_X1 
io_req_bits_in1\[58\] I *L 0.000e+00 *S 2.782e+00 2.297e+00 *D DFFRNQ_X1 
io_req_bits_in1\[57\] I *L 0.000e+00 *S 2.812e+00 2.323e+00 *D DFFRNQ_X1 
io_req_bits_in1\[56\] I *L 0.000e+00 *S 2.805e+00 2.317e+00 *D DFFRNQ_X1 
io_req_bits_in1\[55\] I *L 0.000e+00 *S 2.064e+00 1.705e+00 *D DFFRNQ_X1 
io_req_bits_in1\[54\] I *L 0.000e+00 *S 2.214e+00 1.829e+00 *D DFFRNQ_X1 
io_req_bits_in1\[53\] I *L 0.000e+00 *S 2.631e+00 2.173e+00 *D DFFRNQ_X1 
io_req_bits_in1\[52\] I *L 0.000e+00 *S 2.265e+00 1.871e+00 *D DFFRNQ_X1 
io_req_bits_in1\[51\] I *L 0.000e+00 *S 2.258e+00 1.865e+00 *D DFFRNQ_X1 
io_req_bits_in1\[50\] I *L 0.000e+00 *S 2.420e+00 1.999e+00 *D DFFRNQ_X1 
io_req_bits_in1\[49\] I *L 0.000e+00 *S 2.643e+00 2.183e+00 *D DFFRNQ_X1 
io_req_bits_in1\[48\] I *L 0.000e+00 *S 2.644e+00 2.184e+00 *D DFFRNQ_X1 
io_req_bits_in1\[47\] I *L 0.000e+00 *S 2.092e+00 1.728e+00 *D DFFRNQ_X1 
io_req_bits_in1\[46\] I *L 0.000e+00 *S 2.168e+00 1.790e+00 *D DFFRNQ_X1 
io_req_bits_in1\[45\] I *L 0.000e+00 *S 2.165e+00 1.788e+00 *D DFFRNQ_X1 
io_req_bits_in1\[44\] I *L 0.000e+00 *S 2.381e+00 1.967e+00 *D DFFRNQ_X1 
io_req_bits_in1\[43\] I *L 0.000e+00 *S 2.402e+00 1.984e+00 *D DFFRNQ_X1 
io_req_bits_in1\[42\] I *L 0.000e+00 *S 2.572e+00 2.124e+00 *D DFFRNQ_X1 
io_req_bits_in1\[41\] I *L 0.000e+00 *S 2.610e+00 2.156e+00 *D DFFRNQ_X1 
io_req_bits_in1\[40\] I *L 0.000e+00 *S 2.491e+00 2.057e+00 *D DFFRNQ_X1 
io_req_bits_in1\[39\] I *L 0.000e+00 *S 2.150e+00 1.776e+00 *D DFFRNQ_X1 
io_req_bits_in1\[38\] I *L 0.000e+00 *S 2.202e+00 1.819e+00 *D DFFRNQ_X1 
io_req_bits_in1\[37\] I *L 0.000e+00 *S 2.902e+00 2.396e+00 *D DFFRNQ_X1 
io_req_bits_in1\[36\] I *L 0.000e+00 *S 3.135e+00 2.589e+00 *D DFFRNQ_X1 
io_req_bits_in1\[35\] I *L 0.000e+00 *S 2.897e+00 2.393e+00 *D DFFRNQ_X1 
io_req_bits_in1\[34\] I *L 0.000e+00 *S 2.947e+00 2.434e+00 *D DFFRNQ_X1 
io_req_bits_in1\[33\] I *L 0.000e+00 *S 3.033e+00 2.505e+00 *D DFFRNQ_X1 
io_req_bits_in1\[32\] I *L 0.000e+00 *S 2.852e+00 2.356e+00 *D DFFRNQ_X1 
io_req_bits_in1\[31\] I *L 0.000e+00 *S 5.880e+00 4.985e+00 *D DFFRNQ_X1 
io_req_bits_in1\[30\] I *L 0.000e+00 *S 2.178e+00 1.799e+00 *D DFFRNQ_X1 
io_req_bits_in1\[29\] I *L 0.000e+00 *S 2.189e+00 1.808e+00 *D DFFRNQ_X1 
io_req_bits_in1\[28\] I *L 0.000e+00 *S 2.127e+00 1.757e+00 *D DFFRNQ_X1 
io_req_bits_in1\[27\] I *L 0.000e+00 *S 2.127e+00 1.757e+00 *D DFFRNQ_X1 
io_req_bits_in1\[26\] I *L 0.000e+00 *S 2.138e+00 1.766e+00 *D DFFRNQ_X1 
io_req_bits_in1\[25\] I *L 0.000e+00 *S 2.083e+00 1.720e+00 *D DFFRNQ_X1 
io_req_bits_in1\[24\] I *L 0.000e+00 *S 2.185e+00 1.804e+00 *D DFFRNQ_X1 
io_req_bits_in1\[23\] I *L 0.000e+00 *S 2.132e+00 1.761e+00 *D DFFRNQ_X1 
io_req_bits_in1\[22\] I *L 0.000e+00 *S 2.041e+00 1.686e+00 *D DFFRNQ_X1 
io_req_bits_in1\[21\] I *L 0.000e+00 *S 2.019e+00 1.667e+00 *D DFFRNQ_X1 
io_req_bits_in1\[20\] I *L 0.000e+00 *S 1.947e+00 1.609e+00 *D DFFRNQ_X1 
io_req_bits_in1\[19\] I *L 0.000e+00 *S 2.124e+00 1.754e+00 *D DFFRNQ_X1 
io_req_bits_in1\[18\] I *L 0.000e+00 *S 1.985e+00 1.640e+00 *D DFFRNQ_X1 
io_req_bits_in1\[17\] I *L 0.000e+00 *S 1.936e+00 1.599e+00 *D DFFRNQ_X1 
io_req_bits_in1\[16\] I *L 0.000e+00 *S 1.914e+00 1.581e+00 *D DFFRNQ_X1 
io_req_bits_in1\[15\] I *L 0.000e+00 *S 1.447e+00 1.208e+00 *D DFFRNQ_X1 
io_req_bits_in1\[14\] I *L 0.000e+00 *S 1.378e+00 1.153e+00 *D DFFRNQ_X1 
io_req_bits_in1\[13\] I *L 0.000e+00 *S 1.325e+00 1.111e+00 *D DFFRNQ_X1 
io_req_bits_in1\[12\] I *L 0.000e+00 *S 1.352e+00 1.132e+00 *D DFFRNQ_X1 
io_req_bits_in1\[11\] I *L 0.000e+00 *S 1.342e+00 1.124e+00 *D DFFRNQ_X1 
io_req_bits_in1\[10\] I *L 0.000e+00 *S 1.344e+00 1.126e+00 *D DFFRNQ_X1 
io_req_bits_in1\[9\] I *L 0.000e+00 *S 1.589e+00 1.321e+00 *D DFFRNQ_X1 
io_req_bits_in1\[8\] I *L 0.000e+00 *S 1.665e+00 1.382e+00 *D DFFRNQ_X1 
io_req_bits_in1\[7\] I *L 0.000e+00 *S 1.750e+00 1.450e+00 *D DFFRNQ_X1 
io_req_bits_in1\[6\] I *L 0.000e+00 *S 1.332e+00 1.116e+00 *D DFFRNQ_X1 
io_req_bits_in1\[5\] I *L 0.000e+00 *S 1.312e+00 1.101e+00 *D DFFRNQ_X1 
io_req_bits_in1\[4\] I *L 0.000e+00 *S 1.309e+00 1.098e+00 *D DFFRNQ_X1 
io_req_bits_in1\[3\] I *L 0.000e+00 *S 1.550e+00 1.290e+00 *D DFFRNQ_X1 
io_req_bits_in1\[2\] I *L 0.000e+00 *S 1.742e+00 1.443e+00 *D DFFRNQ_X1 
io_req_bits_in1\[1\] I *L 0.000e+00 *S 1.958e+00 1.618e+00 *D DFFRNQ_X1 
io_req_bits_in1\[0\] I *L 0.000e+00 *S 2.754e+00 2.274e+00 *D DFFRNQ_X1 
io_req_bits_in2\[63\] I *L 0.000e+00 *S 5.068e+00 4.276e+00 *D DFFRNQ_X1 
io_req_bits_in2\[62\] I *L 0.000e+00 *S 2.545e+00 2.102e+00 *D DFFRNQ_X1 
io_req_bits_in2\[61\] I *L 0.000e+00 *S 2.589e+00 2.138e+00 *D DFFRNQ_X1 
io_req_bits_in2\[60\] I *L 0.000e+00 *S 2.530e+00 2.090e+00 *D DFFRNQ_X1 
io_req_bits_in2\[59\] I *L 0.000e+00 *S 2.240e+00 1.850e+00 *D DFFRNQ_X1 
io_req_bits_in2\[58\] I *L 0.000e+00 *S 2.455e+00 2.028e+00 *D DFFRNQ_X1 
io_req_bits_in2\[57\] I *L 0.000e+00 *S 2.286e+00 1.888e+00 *D DFFRNQ_X1 
io_req_bits_in2\[56\] I *L 0.000e+00 *S 2.396e+00 1.979e+00 *D DFFRNQ_X1 
io_req_bits_in2\[55\] I *L 0.000e+00 *S 2.205e+00 1.821e+00 *D DFFRNQ_X1 
io_req_bits_in2\[54\] I *L 0.000e+00 *S 2.193e+00 1.811e+00 *D DFFRNQ_X1 
io_req_bits_in2\[53\] I *L 0.000e+00 *S 2.220e+00 1.834e+00 *D DFFRNQ_X1 
io_req_bits_in2\[52\] I *L 0.000e+00 *S 2.219e+00 1.833e+00 *D DFFRNQ_X1 
io_req_bits_in2\[51\] I *L 0.000e+00 *S 2.228e+00 1.841e+00 *D DFFRNQ_X1 
io_req_bits_in2\[50\] I *L 0.000e+00 *S 2.284e+00 1.887e+00 *D DFFRNQ_X1 
io_req_bits_in2\[49\] I *L 0.000e+00 *S 2.278e+00 1.881e+00 *D DFFRNQ_X1 
io_req_bits_in2\[48\] I *L 0.000e+00 *S 2.233e+00 1.845e+00 *D DFFRNQ_X1 
io_req_bits_in2\[47\] I *L 0.000e+00 *S 2.358e+00 1.948e+00 *D DFFRNQ_X1 
io_req_bits_in2\[46\] I *L 0.000e+00 *S 2.503e+00 2.067e+00 *D DFFRNQ_X1 
io_req_bits_in2\[45\] I *L 0.000e+00 *S 2.417e+00 1.996e+00 *D DFFRNQ_X1 
io_req_bits_in2\[44\] I *L 0.000e+00 *S 2.422e+00 2.000e+00 *D DFFRNQ_X1 
io_req_bits_in2\[43\] I *L 0.000e+00 *S 2.573e+00 2.125e+00 *D DFFRNQ_X1 
io_req_bits_in2\[42\] I *L 0.000e+00 *S 2.546e+00 2.103e+00 *D DFFRNQ_X1 
io_req_bits_in2\[41\] I *L 0.000e+00 *S 2.394e+00 1.977e+00 *D DFFRNQ_X1 
io_req_bits_in2\[40\] I *L 0.000e+00 *S 2.313e+00 1.910e+00 *D DFFRNQ_X1 
io_req_bits_in2\[39\] I *L 0.000e+00 *S 2.352e+00 1.942e+00 *D DFFRNQ_X1 
io_req_bits_in2\[38\] I *L 0.000e+00 *S 2.407e+00 1.988e+00 *D DFFRNQ_X1 
io_req_bits_in2\[37\] I *L 0.000e+00 *S 2.778e+00 2.294e+00 *D DFFRNQ_X1 
io_req_bits_in2\[36\] I *L 0.000e+00 *S 2.304e+00 1.903e+00 *D DFFRNQ_X1 
io_req_bits_in2\[35\] I *L 0.000e+00 *S 2.490e+00 2.057e+00 *D DFFRNQ_X1 
io_req_bits_in2\[34\] I *L 0.000e+00 *S 2.727e+00 2.252e+00 *D DFFRNQ_X1 
io_req_bits_in2\[33\] I *L 0.000e+00 *S 2.635e+00 2.177e+00 *D DFFRNQ_X1 
io_req_bits_in2\[32\] I *L 0.000e+00 *S 2.585e+00 2.135e+00 *D DFFRNQ_X1 
io_req_bits_in2\[31\] I *L 0.000e+00 *S 4.978e+00 4.197e+00 *D DFFRNQ_X1 
io_req_bits_in2\[30\] I *L 0.000e+00 *S 2.393e+00 1.977e+00 *D DFFRNQ_X1 
io_req_bits_in2\[29\] I *L 0.000e+00 *S 2.433e+00 2.010e+00 *D DFFRNQ_X1 
io_req_bits_in2\[28\] I *L 0.000e+00 *S 2.150e+00 1.776e+00 *D DFFRNQ_X1 
io_req_bits_in2\[27\] I *L 0.000e+00 *S 2.432e+00 2.009e+00 *D DFFRNQ_X1 
io_req_bits_in2\[26\] I *L 0.000e+00 *S 2.263e+00 1.869e+00 *D DFFRNQ_X1 
io_req_bits_in2\[25\] I *L 0.000e+00 *S 2.671e+00 2.206e+00 *D DFFRNQ_X1 
io_req_bits_in2\[24\] I *L 0.000e+00 *S 2.834e+00 2.341e+00 *D DFFRNQ_X1 
io_req_bits_in2\[23\] I *L 0.000e+00 *S 2.511e+00 2.074e+00 *D DFFRNQ_X1 
io_req_bits_in2\[22\] I *L 0.000e+00 *S 2.532e+00 2.092e+00 *D DFFRNQ_X1 
io_req_bits_in2\[21\] I *L 0.000e+00 *S 2.407e+00 1.988e+00 *D DFFRNQ_X1 
io_req_bits_in2\[20\] I *L 0.000e+00 *S 2.485e+00 2.052e+00 *D DFFRNQ_X1 
io_req_bits_in2\[19\] I *L 0.000e+00 *S 2.524e+00 2.085e+00 *D DFFRNQ_X1 
io_req_bits_in2\[18\] I *L 0.000e+00 *S 2.609e+00 2.155e+00 *D DFFRNQ_X1 
io_req_bits_in2\[17\] I *L 0.000e+00 *S 2.336e+00 1.930e+00 *D DFFRNQ_X1 
io_req_bits_in2\[16\] I *L 0.000e+00 *S 2.457e+00 2.029e+00 *D DFFRNQ_X1 
io_req_bits_in2\[15\] I *L 0.000e+00 *S 2.382e+00 1.967e+00 *D DFFRNQ_X1 
io_req_bits_in2\[14\] I *L 0.000e+00 *S 2.356e+00 1.946e+00 *D DFFRNQ_X1 
io_req_bits_in2\[13\] I *L 0.000e+00 *S 2.325e+00 1.921e+00 *D DFFRNQ_X1 
io_req_bits_in2\[12\] I *L 0.000e+00 *S 2.186e+00 1.805e+00 *D DFFRNQ_X1 
io_req_bits_in2\[11\] I *L 0.000e+00 *S 2.236e+00 1.847e+00 *D DFFRNQ_X1 
io_req_bits_in2\[10\] I *L 0.000e+00 *S 2.218e+00 1.832e+00 *D DFFRNQ_X1 
io_req_bits_in2\[9\] I *L 0.000e+00 *S 2.266e+00 1.872e+00 *D DFFRNQ_X1 
io_req_bits_in2\[8\] I *L 0.000e+00 *S 2.318e+00 1.914e+00 *D DFFRNQ_X1 
io_req_bits_in2\[7\] I *L 0.000e+00 *S 2.156e+00 1.781e+00 *D DFFRNQ_X1 
io_req_bits_in2\[6\] I *L 0.000e+00 *S 2.270e+00 1.875e+00 *D DFFRNQ_X1 
io_req_bits_in2\[5\] I *L 0.000e+00 *S 2.323e+00 1.919e+00 *D DFFRNQ_X1 
io_req_bits_in2\[4\] I *L 0.000e+00 *S 2.332e+00 1.926e+00 *D DFFRNQ_X1 
io_req_bits_in2\[3\] I *L 0.000e+00 *S 2.405e+00 1.986e+00 *D DFFRNQ_X1 
io_req_bits_in2\[2\] I *L 0.000e+00 *S 2.482e+00 2.050e+00 *D DFFRNQ_X1 
io_req_bits_in2\[1\] I *L 0.000e+00 *S 2.464e+00 2.035e+00 *D DFFRNQ_X1 
io_req_bits_in2\[0\] I *L 0.000e+00 *S 2.525e+00 2.086e+00 *D DFFRNQ_X1 
io_req_bits_tag\[4\] I *L 0.000e+00 *S 7.773e-01 6.619e-01 *D DFFRNQ_X1 
io_req_bits_tag\[3\] I *L 0.000e+00 *S 9.944e-01 8.468e-01 *D DFFRNQ_X1 
io_req_bits_tag\[2\] I *L 0.000e+00 *S 1.026e+00 8.726e-01 *D DFFRNQ_X1 
io_req_bits_tag\[1\] I *L 0.000e+00 *S 6.927e-01 5.899e-01 *D DFFRNQ_X1 
io_req_bits_tag\[0\] I *L 0.000e+00 *S 7.459e-01 6.352e-01 *D DFFRNQ_X1 
io_kill I *L 0.000e+00 *S 1.934e+00 1.598e+00 *D DFFRNQ_X1 
io_resp_ready I *L 0.000e+00 *S 1.803e+00 1.491e+00 *D DFFRNQ_X1 
io_resp_valid O *L 2.546e+00 *S 9.706e+00 8.054e+00 
io_resp_bits_data\[63\] O *L 2.546e+00 *S 6.146e+00 6.020e+00 
io_resp_bits_data\[62\] O *L 2.546e+00 *S 6.246e+00 6.118e+00 
io_resp_bits_data\[61\] O *L 2.546e+00 *S 6.320e+00 6.189e+00 
io_resp_bits_data\[60\] O *L 2.546e+00 *S 6.200e+00 6.072e+00 
io_resp_bits_data\[59\] O *L 2.546e+00 *S 6.138e+00 6.012e+00 
io_resp_bits_data\[58\] O *L 2.546e+00 *S 6.053e+00 5.929e+00 
io_resp_bits_data\[57\] O *L 2.546e+00 *S 5.926e+00 5.806e+00 
io_resp_bits_data\[56\] O *L 2.546e+00 *S 5.899e+00 5.780e+00 
io_resp_bits_data\[55\] O *L 2.546e+00 *S 5.972e+00 5.850e+00 
io_resp_bits_data\[54\] O *L 2.546e+00 *S 5.934e+00 5.813e+00 
io_resp_bits_data\[53\] O *L 2.546e+00 *S 6.008e+00 5.886e+00 
io_resp_bits_data\[52\] O *L 2.546e+00 *S 5.966e+00 5.845e+00 
io_resp_bits_data\[51\] O *L 2.546e+00 *S 6.097e+00 5.973e+00 
io_resp_bits_data\[50\] O *L 2.546e+00 *S 6.042e+00 5.919e+00 
io_resp_bits_data\[49\] O *L 2.546e+00 *S 6.037e+00 5.914e+00 
io_resp_bits_data\[48\] O *L 2.546e+00 *S 6.252e+00 6.123e+00 
io_resp_bits_data\[47\] O *L 2.546e+00 *S 6.040e+00 5.917e+00 
io_resp_bits_data\[46\] O *L 2.546e+00 *S 6.147e+00 6.021e+00 
io_resp_bits_data\[45\] O *L 2.546e+00 *S 6.135e+00 6.009e+00 
io_resp_bits_data\[44\] O *L 2.546e+00 *S 6.175e+00 6.049e+00 
io_resp_bits_data\[43\] O *L 2.546e+00 *S 6.044e+00 5.921e+00 
io_resp_bits_data\[42\] O *L 2.546e+00 *S 6.365e+00 6.234e+00 
io_resp_bits_data\[41\] O *L 2.546e+00 *S 6.247e+00 6.118e+00 
io_resp_bits_data\[40\] O *L 2.546e+00 *S 5.970e+00 5.849e+00 
io_resp_bits_data\[39\] O *L 2.546e+00 *S 5.954e+00 5.833e+00 
io_resp_bits_data\[38\] O *L 2.546e+00 *S 6.126e+00 6.000e+00 
io_resp_bits_data\[37\] O *L 2.546e+00 *S 6.337e+00 6.206e+00 
io_resp_bits_data\[36\] O *L 2.546e+00 *S 6.150e+00 6.024e+00 
io_resp_bits_data\[35\] O *L 2.546e+00 *S 6.265e+00 6.135e+00 
io_resp_bits_data\[34\] O *L 2.546e+00 *S 6.272e+00 6.143e+00 
io_resp_bits_data\[33\] O *L 2.546e+00 *S 6.245e+00 6.117e+00 
io_resp_bits_data\[32\] O *L 2.546e+00 *S 6.302e+00 6.172e+00 
io_resp_bits_data\[31\] O *L 2.546e+00 *S 7.620e+00 7.379e+00 
io_resp_bits_data\[30\] O *L 2.546e+00 *S 6.271e+00 6.088e+00 
io_resp_bits_data\[29\] O *L 2.546e+00 *S 6.340e+00 6.153e+00 
io_resp_bits_data\[28\] O *L 2.546e+00 *S 6.197e+00 6.016e+00 
io_resp_bits_data\[27\] O *L 2.546e+00 *S 6.224e+00 6.043e+00 
io_resp_bits_data\[26\] O *L 2.546e+00 *S 6.115e+00 5.939e+00 
io_resp_bits_data\[25\] O *L 2.546e+00 *S 5.980e+00 5.809e+00 
io_resp_bits_data\[24\] O *L 2.546e+00 *S 5.941e+00 5.772e+00 
io_resp_bits_data\[23\] O *L 2.546e+00 *S 5.999e+00 5.828e+00 
io_resp_bits_data\[22\] O *L 2.546e+00 *S 5.992e+00 5.820e+00 
io_resp_bits_data\[21\] O *L 2.546e+00 *S 6.004e+00 5.832e+00 
io_resp_bits_data\[20\] O *L 2.546e+00 *S 6.068e+00 5.893e+00 
io_resp_bits_data\[19\] O *L 2.546e+00 *S 6.156e+00 5.977e+00 
io_resp_bits_data\[18\] O *L 2.546e+00 *S 6.079e+00 5.904e+00 
io_resp_bits_data\[17\] O *L 2.546e+00 *S 6.149e+00 5.971e+00 
io_resp_bits_data\[16\] O *L 2.546e+00 *S 6.245e+00 6.062e+00 
io_resp_bits_data\[15\] O *L 2.546e+00 *S 6.075e+00 5.900e+00 
io_resp_bits_data\[14\] O *L 2.546e+00 *S 5.997e+00 5.825e+00 
io_resp_bits_data\[13\] O *L 2.546e+00 *S 6.006e+00 5.834e+00 
io_resp_bits_data\[12\] O *L 2.546e+00 *S 6.031e+00 5.858e+00 
io_resp_bits_data\[11\] O *L 2.546e+00 *S 6.063e+00 5.888e+00 
io_resp_bits_data\[10\] O *L 2.546e+00 *S 6.311e+00 6.126e+00 
io_resp_bits_data\[9\] O *L 2.546e+00 *S 6.182e+00 6.002e+00 
io_resp_bits_data\[8\] O *L 2.546e+00 *S 6.144e+00 5.966e+00 
io_resp_bits_data\[7\] O *L 2.546e+00 *S 6.160e+00 5.982e+00 
io_resp_bits_data\[6\] O *L 2.546e+00 *S 6.204e+00 6.023e+00 
io_resp_bits_data\[5\] O *L 2.546e+00 *S 6.305e+00 6.120e+00 
io_resp_bits_data\[4\] O *L 2.546e+00 *S 6.257e+00 6.074e+00 
io_resp_bits_data\[3\] O *L 2.546e+00 *S 6.294e+00 6.110e+00 
io_resp_bits_data\[2\] O *L 2.546e+00 *S 6.416e+00 6.226e+00 
io_resp_bits_data\[1\] O *L 2.546e+00 *S 6.290e+00 6.106e+00 
io_resp_bits_data\[0\] O *L 2.546e+00 *S 6.378e+00 6.190e+00 
io_resp_bits_tag\[4\] O *L 2.546e+00 *S 2.337e+00 2.267e+00 
io_resp_bits_tag\[3\] O *L 2.546e+00 *S 2.857e+00 2.744e+00 
io_resp_bits_tag\[2\] O *L 2.546e+00 *S 2.843e+00 2.732e+00 
io_resp_bits_tag\[1\] O *L 2.546e+00 *S 2.769e+00 2.663e+00 
io_resp_bits_tag\[0\] O *L 2.546e+00 *S 2.724e+00 2.621e+00 
test_si I *L 0.000e+00 *S 0.000e+00 0.000e+00 
test_se I *L 0.000e+00 *S 0.000e+00 0.000e+00 

*R_NET clock 8.550e+00
*DRIVER clock
*CELL NULL
*C2_R1_C1 4.275e+00 2.391e-01 4.275e+00 
*LOADS
*RC clk_gate_req_dw_reg/latch:CLK 8.177e-02
*RC clk_gate_count_reg/latch:CLK 8.177e-02
*RC clk_gate_state_reg/latch:CLK 8.177e-02
*RC clk_gate_remainder_reg/latch:CLK 8.177e-02
*RC clk_gate_divisor_reg/latch:CLK 8.177e-02
*END

*R_NET reset 2.809e+00
*DRIVER reset
*CELL DFFRNQ_X1
*C2_R1_C1 1.405e+00 4.039e-01 1.405e+00 
*LOADS
*RC U7292:A2 5.759e-01
*RC U7288:A1 5.289e-01
*END

*R_NET io_req_valid 1.907e+00
*DRIVER io_req_valid
*CELL DFFRNQ_X1
*C2_R1_C1 9.537e-01 4.808e-01 9.537e-01 
*LOADS
*RC U2769:A2 5.597e-01
*END

*R_NET io_req_bits_fn\[2\] 6.908e+00
*DRIVER io_req_bits_fn\[2\]
*CELL DFFRNQ_X1
*C2_R1_C1 3.454e+00 6.479e-01 3.454e+00 
*LOADS
*RC U7321:A1 1.164e+00
*RC U7291:I 1.008e+00
*RC U6772:B1 1.164e+00
*RC U3293:A1 1.296e+00
*RC U2973:A2 1.201e+00
*END

*R_NET io_req_bits_fn\[1\] 4.211e+00
*DRIVER io_req_bits_fn\[1\]
*CELL DFFRNQ_X1
*C2_R1_C1 2.105e+00 4.558e-01 2.105e+00 
*LOADS
*RC U6794:A1 7.509e-01
*RC U3292:I 7.047e-01
*RC U2972:A2 7.938e-01
*END

*R_NET io_req_bits_fn\[0\] 7.452e+00
*DRIVER io_req_bits_fn\[0\]
*CELL DFFRNQ_X1
*C2_R1_C1 3.726e+00 4.907e-01 3.726e+00 
*LOADS
*RC U7320:I 1.072e+00
*RC U7295:A1 1.012e+00
*RC U6795:B2 9.771e-01
*RC U6790:A1 1.124e+00
*RC U2973:A1 1.135e+00
*RC U2972:A1 1.217e+00
*END

*R_NET io_req_bits_dw 7.261e+00
*DRIVER io_req_bits_dw
*CELL DFFRNQ_X1
*C2_R1_C1 3.631e+00 5.645e-01 3.631e+00 
*LOADS
*RC U3296:A1 1.443e+00
*RC U6788:A2 1.286e+00
*RC U6786:A2 1.376e+00
*RC U6785:A1 1.109e+00
*RC U2767:I 1.295e+00
*RC req_dw_reg:D 4.722e-01
*END

*R_NET io_req_bits_in1\[63\] 4.029e+00
*DRIVER io_req_bits_in1\[63\]
*CELL DFFRNQ_X1
*C2_R1_C1 2.014e+00 1.003e+00 2.014e+00 
*LOADS
*RC U6787:I 1.024e+00
*RC U6185:A2 1.600e+00
*END

*R_NET io_req_bits_in1\[62\] 2.657e+00
*DRIVER io_req_bits_in1\[62\]
*CELL DFFRNQ_X1
*C2_R1_C1 1.328e+00 8.633e-01 1.328e+00 
*LOADS
*RC U6280:A2 1.208e+00
*END

*R_NET io_req_bits_in1\[61\] 2.725e+00
*DRIVER io_req_bits_in1\[61\]
*CELL DFFRNQ_X1
*C2_R1_C1 1.363e+00 8.971e-01 1.363e+00 
*LOADS
*RC U6341:A2 1.274e+00
*END

*R_NET io_req_bits_in1\[60\] 2.726e+00
*DRIVER io_req_bits_in1\[60\]
*CELL DFFRNQ_X1
*C2_R1_C1 1.363e+00 8.977e-01 1.363e+00 
*LOADS
*RC U6950:A2 1.275e+00
*END

*R_NET io_req_bits_in1\[59\] 2.645e+00
*DRIVER io_req_bits_in1\[59\]
*CELL DFFRNQ_X1
*C2_R1_C1 1.322e+00 8.573e-01 1.322e+00 
*LOADS
*RC U6990:A2 1.196e+00
*END

*R_NET io_req_bits_in1\[58\] 2.662e+00
*DRIVER io_req_bits_in1\[58\]
*CELL DFFRNQ_X1
*C2_R1_C1 1.331e+00 8.659e-01 1.331e+00 
*LOADS
*RC U7188:A2 1.213e+00
*END

*R_NET io_req_bits_in1\[57\] 2.666e+00
*DRIVER io_req_bits_in1\[57\]
*CELL DFFRNQ_X1
*C2_R1_C1 1.333e+00 8.664e-01 1.333e+00 
*LOADS
*RC U6095:A2 1.216e+00
*END

*R_NET io_req_bits_in1\[56\] 2.688e+00
*DRIVER io_req_bits_in1\[56\]
*CELL DFFRNQ_X1
*C2_R1_C1 1.344e+00 8.791e-01 1.344e+00 
*LOADS
*RC U6699:A2 1.239e+00
*END

*R_NET io_req_bits_in1\[55\] 1.823e+00
*DRIVER io_req_bits_in1\[55\]
*CELL DFFRNQ_X1
*C2_R1_C1 9.117e-01 4.568e-01 9.117e-01 
*LOADS
*RC U6396:A2 5.198e-01
*END

*R_NET io_req_bits_in1\[54\] 1.992e+00
*DRIVER io_req_bits_in1\[54\]
*CELL DFFRNQ_X1
*C2_R1_C1 9.962e-01 5.240e-01 9.962e-01 
*LOADS
*RC U6492:A2 6.246e-01
*END

*R_NET io_req_bits_in1\[53\] 2.492e+00
*DRIVER io_req_bits_in1\[53\]
*CELL DFFRNQ_X1
*C2_R1_C1 1.246e+00 7.811e-01 1.246e+00 
*LOADS
*RC U6565:A2 1.053e+00
*END

*R_NET io_req_bits_in1\[52\] 2.050e+00
*DRIVER io_req_bits_in1\[52\]
*CELL DFFRNQ_X1
*C2_R1_C1 1.025e+00 5.541e-01 1.025e+00 
*LOADS
*RC U6887:A2 6.708e-01
*END

*R_NET io_req_bits_in1\[51\] 2.042e+00
*DRIVER io_req_bits_in1\[51\]
*CELL DFFRNQ_X1
*C2_R1_C1 1.021e+00 5.498e-01 1.021e+00 
*LOADS
*RC U7041:A2 6.641e-01
*END

*R_NET io_req_bits_in1\[50\] 2.224e+00
*DRIVER io_req_bits_in1\[50\]
*CELL DFFRNQ_X1
*C2_R1_C1 1.112e+00 6.433e-01 1.112e+00 
*LOADS
*RC U7014:A2 8.145e-01
*END

*R_NET io_req_bits_in1\[49\] 2.476e+00
*DRIVER io_req_bits_in1\[49\]
*CELL DFFRNQ_X1
*C2_R1_C1 1.238e+00 7.712e-01 1.238e+00 
*LOADS
*RC U6011:A2 1.037e+00
*END

*R_NET io_req_bits_in1\[48\] 2.477e+00
*DRIVER io_req_bits_in1\[48\]
*CELL DFFRNQ_X1
*C2_R1_C1 1.238e+00 7.718e-01 1.238e+00 
*LOADS
*RC U6732:A2 1.038e+00
*END

*R_NET io_req_bits_in1\[47\] 1.855e+00
*DRIVER io_req_bits_in1\[47\]
*CELL DFFRNQ_X1
*C2_R1_C1 9.277e-01 4.744e-01 9.277e-01 
*LOADS
*RC U6441:A2 5.449e-01
*END

*R_NET io_req_bits_in1\[46\] 1.940e+00
*DRIVER io_req_bits_in1\[46\]
*CELL DFFRNQ_X1
*C2_R1_C1 9.701e-01 5.005e-01 9.701e-01 
*LOADS
*RC U6467:A2 5.882e-01
*END

*R_NET io_req_bits_in1\[45\] 1.937e+00
*DRIVER io_req_bits_in1\[45\]
*CELL DFFRNQ_X1
*C2_R1_C1 9.684e-01 4.979e-01 9.684e-01 
*LOADS
*RC U6605:A2 5.846e-01
*END

*R_NET io_req_bits_in1\[44\] 2.181e+00
*DRIVER io_req_bits_in1\[44\]
*CELL DFFRNQ_X1
*C2_R1_C1 1.090e+00 6.212e-01 1.090e+00 
*LOADS
*RC U6935:A2 7.781e-01
*END

*R_NET io_req_bits_in1\[43\] 2.204e+00
*DRIVER io_req_bits_in1\[43\]
*CELL DFFRNQ_X1
*C2_R1_C1 1.102e+00 6.332e-01 1.102e+00 
*LOADS
*RC U7138:A2 7.977e-01
*END

*R_NET io_req_bits_in1\[42\] 2.395e+00
*DRIVER io_req_bits_in1\[42\]
*CELL DFFRNQ_X1
*C2_R1_C1 1.198e+00 7.305e-01 1.198e+00 
*LOADS
*RC U7167:A2 9.642e-01
*END

*R_NET io_req_bits_in1\[41\] 2.439e+00
*DRIVER io_req_bits_in1\[41\]
*CELL DFFRNQ_X1
*C2_R1_C1 1.219e+00 7.522e-01 1.219e+00 
*LOADS
*RC U5900:A2 1.003e+00
*END

*R_NET io_req_bits_in1\[40\] 2.304e+00
*DRIVER io_req_bits_in1\[40\]
*CELL DFFRNQ_X1
*C2_R1_C1 1.152e+00 6.843e-01 1.152e+00 
*LOADS
*RC U6678:A2 8.837e-01
*END

*R_NET io_req_bits_in1\[39\] 1.921e+00
*DRIVER io_req_bits_in1\[39\]
*CELL DFFRNQ_X1
*C2_R1_C1 9.604e-01 4.867e-01 9.604e-01 
*LOADS
*RC U6381:A2 5.687e-01
*END

*R_NET io_req_bits_in1\[38\] 1.979e+00
*DRIVER io_req_bits_in1\[38\]
*CELL DFFRNQ_X1
*C2_R1_C1 9.896e-01 5.221e-01 9.896e-01 
*LOADS
*RC U6531:A2 6.202e-01
*END

*R_NET io_req_bits_in1\[37\] 2.767e+00
*DRIVER io_req_bits_in1\[37\]
*CELL DFFRNQ_X1
*C2_R1_C1 1.383e+00 9.165e-01 1.383e+00 
*LOADS
*RC U6551:A2 1.315e+00
*END

*R_NET io_req_bits_in1\[36\] 3.029e+00
*DRIVER io_req_bits_in1\[36\]
*CELL DFFRNQ_X1
*C2_R1_C1 1.515e+00 8.996e-01 1.515e+00 
*LOADS
*RC U6872:A2 1.366e+00
*END

*R_NET io_req_bits_in1\[35\] 2.792e+00
*DRIVER io_req_bits_in1\[35\]
*CELL DFFRNQ_X1
*C2_R1_C1 1.396e+00 7.997e-01 1.396e+00 
*LOADS
*RC U2971:A2 1.155e+00
*END

*R_NET io_req_bits_in1\[34\] 2.848e+00
*DRIVER io_req_bits_in1\[34\]
*CELL DFFRNQ_X1
*C2_R1_C1 1.424e+00 8.235e-01 1.424e+00 
*LOADS
*RC U7214:A2 1.203e+00
*END

*R_NET io_req_bits_in1\[33\] 2.945e+00
*DRIVER io_req_bits_in1\[33\]
*CELL DFFRNQ_X1
*C2_R1_C1 1.473e+00 8.654e-01 1.473e+00 
*LOADS
*RC U3074:A2 1.290e+00
*END

*R_NET io_req_bits_in1\[32\] 2.741e+00
*DRIVER io_req_bits_in1\[32\]
*CELL DFFRNQ_X1
*C2_R1_C1 1.371e+00 7.780e-01 1.371e+00 
*LOADS
*RC U7274:A2 1.111e+00
*END

*R_NET io_req_bits_in1\[31\] 6.645e+00
*DRIVER io_req_bits_in1\[31\]
*CELL DFFRNQ_X1
*C2_R1_C1 3.323e+00 1.124e+00 3.323e+00 
*LOADS
*RC U2460:A4 2.163e+00
*RC U6786:A1 1.924e+00
*RC U6425:A2 2.050e+00
*END

*R_NET io_req_bits_in1\[30\] 1.982e+00
*DRIVER io_req_bits_in1\[30\]
*CELL DFFRNQ_X1
*C2_R1_C1 9.910e-01 4.451e-01 9.910e-01 
*LOADS
*RC U6513:A2 5.302e-01
*END

*R_NET io_req_bits_in1\[29\] 1.995e+00
*DRIVER io_req_bits_in1\[29\]
*CELL DFFRNQ_X1
*C2_R1_C1 9.975e-01 4.506e-01 9.975e-01 
*LOADS
*RC U6589:A2 5.386e-01
*END

*R_NET io_req_bits_in1\[28\] 1.925e+00
*DRIVER io_req_bits_in1\[28\]
*CELL DFFRNQ_X1
*C2_R1_C1 9.624e-01 4.189e-01 9.624e-01 
*LOADS
*RC U6919:A2 4.913e-01
*END

*R_NET io_req_bits_in1\[27\] 1.925e+00
*DRIVER io_req_bits_in1\[27\]
*CELL DFFRNQ_X1
*C2_R1_C1 9.627e-01 4.195e-01 9.627e-01 
*LOADS
*RC U7066:A2 4.920e-01
*END

*R_NET io_req_bits_in1\[26\] 1.938e+00
*DRIVER io_req_bits_in1\[26\]
*CELL DFFRNQ_X1
*C2_R1_C1 9.690e-01 4.248e-01 9.690e-01 
*LOADS
*RC U7197:A2 5.000e-01
*END

*R_NET io_req_bits_in1\[25\] 1.875e+00
*DRIVER io_req_bits_in1\[25\]
*CELL DFFRNQ_X1
*C2_R1_C1 9.377e-01 3.971e-01 9.377e-01 
*LOADS
*RC U5929:A2 4.593e-01
*END

*R_NET io_req_bits_in1\[24\] 1.959e+00
*DRIVER io_req_bits_in1\[24\]
*CELL DFFRNQ_X1
*C2_R1_C1 9.797e-01 4.331e-01 9.797e-01 
*LOADS
*RC U6706:A2 5.135e-01
*END

*R_NET io_req_bits_in1\[23\] 1.901e+00
*DRIVER io_req_bits_in1\[23\]
*CELL DFFRNQ_X1
*C2_R1_C1 9.503e-01 4.151e-01 9.503e-01 
*LOADS
*RC U6406:A2 4.844e-01
*END

*R_NET io_req_bits_in1\[22\] 1.829e+00
*DRIVER io_req_bits_in1\[22\]
*CELL DFFRNQ_X1
*C2_R1_C1 9.144e-01 3.930e-01 9.144e-01 
*LOADS
*RC U6504:A2 4.491e-01
*END

*R_NET io_req_bits_in1\[21\] 1.773e+00
*DRIVER io_req_bits_in1\[21\]
*CELL DFFRNQ_X1
*C2_R1_C1 8.863e-01 3.489e-01 8.863e-01 
*LOADS
*RC U6574:A2 3.922e-01
*END

*R_NET io_req_bits_in1\[20\] 1.692e+00
*DRIVER io_req_bits_in1\[20\]
*CELL DFFRNQ_X1
*C2_R1_C1 8.462e-01 3.127e-01 8.462e-01 
*LOADS
*RC U6896:A2 3.429e-01
*END

*R_NET io_req_bits_in1\[19\] 1.891e+00
*DRIVER io_req_bits_in1\[19\]
*CELL DFFRNQ_X1
*C2_R1_C1 9.456e-01 4.027e-01 9.456e-01 
*LOADS
*RC U7055:A2 4.685e-01
*END

*R_NET io_req_bits_in1\[18\] 1.735e+00
*DRIVER io_req_bits_in1\[18\]
*CELL DFFRNQ_X1
*C2_R1_C1 8.675e-01 3.321e-01 8.675e-01 
*LOADS
*RC U7225:A2 3.690e-01
*END

*R_NET io_req_bits_in1\[17\] 1.680e+00
*DRIVER io_req_bits_in1\[17\]
*CELL DFFRNQ_X1
*C2_R1_C1 8.398e-01 3.072e-01 8.398e-01 
*LOADS
*RC U6041:A2 3.355e-01
*END

*R_NET io_req_bits_in1\[16\] 1.655e+00
*DRIVER io_req_bits_in1\[16\]
*CELL DFFRNQ_X1
*C2_R1_C1 8.276e-01 2.956e-01 8.276e-01 
*LOADS
*RC U7255:A2 3.202e-01
*END

*R_NET io_req_bits_in1\[15\] 1.222e+00
*DRIVER io_req_bits_in1\[15\]
*CELL DFFRNQ_X1
*C2_R1_C1 6.109e-01 1.087e-01 6.109e-01 
*LOADS
*RC U6622:A2 9.720e-02
*END

*R_NET io_req_bits_in1\[14\] 1.159e+00
*DRIVER io_req_bits_in1\[14\]
*CELL DFFRNQ_X1
*C2_R1_C1 5.796e-01 7.940e-02 5.796e-01 
*LOADS
*RC U7095:A2 6.675e-02
*END

*R_NET io_req_bits_in1\[13\] 1.111e+00
*DRIVER io_req_bits_in1\[13\]
*CELL DFFRNQ_X1
*C2_R1_C1 5.556e-01 4.560e-02 5.556e-01 
*LOADS
*RC U6809:A2 3.323e-02
*END

*R_NET io_req_bits_in1\[12\] 1.136e+00
*DRIVER io_req_bits_in1\[12\]
*CELL DFFRNQ_X1
*C2_R1_C1 5.678e-01 6.518e-02 5.678e-01 
*LOADS
*RC U7079:A2 5.247e-02
*END

*R_NET io_req_bits_in1\[11\] 1.126e+00
*DRIVER io_req_bits_in1\[11\]
*CELL DFFRNQ_X1
*C2_R1_C1 5.632e-01 5.147e-02 5.632e-01 
*LOADS
*RC U7115:A2 3.906e-02
*END

*R_NET io_req_bits_in1\[10\] 1.128e+00
*DRIVER io_req_bits_in1\[10\]
*CELL DFFRNQ_X1
*C2_R1_C1 5.642e-01 5.546e-02 5.642e-01 
*LOADS
*RC U7238:A2 4.295e-02
*END

*R_NET io_req_bits_in1\[9\] 1.351e+00
*DRIVER io_req_bits_in1\[9\]
*CELL DFFRNQ_X1
*C2_R1_C1 6.757e-01 1.554e-01 6.757e-01 
*LOADS
*RC U5375:A2 1.494e-01
*END

*R_NET io_req_bits_in1\[8\] 1.420e+00
*DRIVER io_req_bits_in1\[8\]
*CELL DFFRNQ_X1
*C2_R1_C1 7.102e-01 1.879e-01 7.102e-01 
*LOADS
*RC U7247:A2 1.867e-01
*END

*R_NET io_req_bits_in1\[7\] 1.498e+00
*DRIVER io_req_bits_in1\[7\]
*CELL DFFRNQ_X1
*C2_R1_C1 7.491e-01 2.446e-01 7.491e-01 
*LOADS
*RC U6611:A2 2.519e-01
*END

*R_NET io_req_bits_in1\[6\] 1.118e+00
*DRIVER io_req_bits_in1\[6\]
*CELL DFFRNQ_X1
*C2_R1_C1 5.588e-01 4.684e-02 5.588e-01 
*LOADS
*RC U7087:A2 3.448e-02
*END

*R_NET io_req_bits_in1\[5\] 1.100e+00
*DRIVER io_req_bits_in1\[5\]
*CELL DFFRNQ_X1
*C2_R1_C1 5.499e-01 4.031e-02 5.499e-01 
*LOADS
*RC U6799:A2 2.803e-02
*END

*R_NET io_req_bits_in1\[4\] 1.097e+00
*DRIVER io_req_bits_in1\[4\]
*CELL DFFRNQ_X1
*C2_R1_C1 5.485e-01 3.840e-02 5.485e-01 
*LOADS
*RC U7071:A2 2.617e-02
*END

*R_NET io_req_bits_in1\[3\] 1.316e+00
*DRIVER io_req_bits_in1\[3\]
*CELL DFFRNQ_X1
*C2_R1_C1 6.579e-01 1.388e-01 6.579e-01 
*LOADS
*RC U7104:A2 1.308e-01
*END

*R_NET io_req_bits_in1\[2\] 1.490e+00
*DRIVER io_req_bits_in1\[2\]
*CELL DFFRNQ_X1
*C2_R1_C1 7.452e-01 2.206e-01 7.452e-01 
*LOADS
*RC U7229:A2 2.255e-01
*END

*R_NET io_req_bits_in1\[1\] 1.705e+00
*DRIVER io_req_bits_in1\[1\]
*CELL DFFRNQ_X1
*C2_R1_C1 8.523e-01 3.183e-01 8.523e-01 
*LOADS
*RC U6018:A2 3.504e-01
*END

*R_NET io_req_bits_in1\[0\] 2.631e+00
*DRIVER io_req_bits_in1\[0\]
*CELL DFFRNQ_X1
*C2_R1_C1 1.315e+00 8.501e-01 1.315e+00 
*LOADS
*RC U7284:A2 1.183e+00
*END

*R_NET io_req_bits_in2\[63\] 5.559e+00
*DRIVER io_req_bits_in2\[63\]
*CELL DFFRNQ_X1
*C2_R1_C1 2.779e+00 5.021e-01 2.779e+00 
*LOADS
*RC U7294:B1 1.040e+00
*RC U6792:I 9.276e-01
*RC U6785:A2 8.515e-01
*RC U3295:I 1.074e+00
*END

*R_NET io_req_bits_in2\[62\] 2.396e+00
*DRIVER io_req_bits_in2\[62\]
*CELL DFFRNQ_X1
*C2_R1_C1 1.198e+00 7.539e-01 1.198e+00 
*LOADS
*RC U3705:A2 9.945e-01
*END

*R_NET io_req_bits_in2\[61\] 2.445e+00
*DRIVER io_req_bits_in2\[61\]
*CELL DFFRNQ_X1
*C2_R1_C1 1.223e+00 7.793e-01 1.223e+00 
*LOADS
*RC U3701:A2 1.040e+00
*END

*R_NET io_req_bits_in2\[60\] 2.379e+00
*DRIVER io_req_bits_in2\[60\]
*CELL DFFRNQ_X1
*C2_R1_C1 1.190e+00 7.415e-01 1.190e+00 
*LOADS
*RC U3695:A2 9.741e-01
*END

*R_NET io_req_bits_in2\[59\] 2.052e+00
*DRIVER io_req_bits_in2\[59\]
*CELL DFFRNQ_X1
*C2_R1_C1 1.026e+00 5.183e-01 1.026e+00 
*LOADS
*RC U3690:A2 6.303e-01
*END

*R_NET io_req_bits_in2\[58\] 2.294e+00
*DRIVER io_req_bits_in2\[58\]
*CELL DFFRNQ_X1
*C2_R1_C1 1.147e+00 6.288e-01 1.147e+00 
*LOADS
*RC U3685:A2 8.123e-01
*END

*R_NET io_req_bits_in2\[57\] 2.104e+00
*DRIVER io_req_bits_in2\[57\]
*CELL DFFRNQ_X1
*C2_R1_C1 1.052e+00 5.415e-01 1.052e+00 
*LOADS
*RC U3678:A2 6.674e-01
*END

*R_NET io_req_bits_in2\[56\] 2.228e+00
*DRIVER io_req_bits_in2\[56\]
*CELL DFFRNQ_X1
*C2_R1_C1 1.114e+00 5.976e-01 1.114e+00 
*LOADS
*RC U3673:A2 7.597e-01
*END

*R_NET io_req_bits_in2\[55\] 2.013e+00
*DRIVER io_req_bits_in2\[55\]
*CELL DFFRNQ_X1
*C2_R1_C1 1.006e+00 4.999e-01 1.006e+00 
*LOADS
*RC U3669:A2 6.017e-01
*END

*R_NET io_req_bits_in2\[54\] 1.999e+00
*DRIVER io_req_bits_in2\[54\]
*CELL DFFRNQ_X1
*C2_R1_C1 9.995e-01 4.912e-01 9.995e-01 
*LOADS
*RC U3663:A2 5.890e-01
*END

*R_NET io_req_bits_in2\[53\] 2.030e+00
*DRIVER io_req_bits_in2\[53\]
*CELL DFFRNQ_X1
*C2_R1_C1 1.015e+00 5.055e-01 1.015e+00 
*LOADS
*RC U3658:A2 6.111e-01
*END

*R_NET io_req_bits_in2\[52\] 2.028e+00
*DRIVER io_req_bits_in2\[52\]
*CELL DFFRNQ_X1
*C2_R1_C1 1.014e+00 5.081e-01 1.014e+00 
*LOADS
*RC U3652:A2 6.141e-01
*END

*R_NET io_req_bits_in2\[51\] 2.039e+00
*DRIVER io_req_bits_in2\[51\]
*CELL DFFRNQ_X1
*C2_R1_C1 1.020e+00 5.012e-01 1.020e+00 
*LOADS
*RC U3647:A2 6.072e-01
*END

*R_NET io_req_bits_in2\[50\] 2.102e+00
*DRIVER io_req_bits_in2\[50\]
*CELL DFFRNQ_X1
*C2_R1_C1 1.051e+00 5.318e-01 1.051e+00 
*LOADS
*RC U3641:A2 6.548e-01
*END

*R_NET io_req_bits_in2\[49\] 2.095e+00
*DRIVER io_req_bits_in2\[49\]
*CELL DFFRNQ_X1
*C2_R1_C1 1.047e+00 5.267e-01 1.047e+00 
*LOADS
*RC U3636:A2 6.473e-01
*END

*R_NET io_req_bits_in2\[48\] 2.045e+00
*DRIVER io_req_bits_in2\[48\]
*CELL DFFRNQ_X1
*C2_R1_C1 1.022e+00 5.089e-01 1.022e+00 
*LOADS
*RC U3629:A2 6.175e-01
*END
